<?xml version="1.0" encoding="UTF-8"?>
<additional>
    <parkingArea id="parkingLot" lane="-252121041#1_0" startPos="0" endPos="2">
        <space x="1785.00" y="3815.00" length="25" angle="97"/>
    </parkingArea>
</additional>
