<?xml version="1.0" encoding="UTF-8"?>
<!-- generated on 2021-11-28 03:11:18.154474 by randomTrips.py v1_11_0+0000-d32ff7d52a3
  options: -n budapest.net.xml -r budapest.rou.xml -e 50 -l
-->
<routes xmlns:xsi="http://www.w3.org/2001/XMLSchema-instance" xsi:noNamespaceSchemaLocation="http://sumo.dlr.de/xsd/routes_file.xsd">
    <trip id="0" depart="0.00" from="314335689" to="-16608854"/>
    <trip id="1" depart="1.00" from="158372725" to="129262112#0"/>
    <trip id="2" depart="2.00" from="391758149" to="325313604"/>
    <trip id="3" depart="3.00" from="79042979#1" to="-259048744"/>
    <trip id="4" depart="4.00" from="24256000#0" to="-23226727#1"/>
    <trip id="5" depart="5.00" from="125067697#0" to="252121040#0"/>
    <trip id="6" depart="6.00" from="-172779395#4" to="125067697#1"/>
    <trip id="7" depart="7.00" from="320192378#0" to="260901509#0"/>
    <trip id="8" depart="8.00" from="125067712#0" to="280989223"/>
    <trip id="9" depart="9.00" from="553121428" to="-127553910"/>
    <trip id="10" depart="10.00" from="55055055#3" to="353288345"/>
    <trip id="11" depart="11.00" from="23681390#1" to="-496369652#4"/>
    <trip id="12" depart="12.00" from="9798564#3" to="23989658#0"/>
    <trip id="13" depart="13.00" from="-252121041#1" to="-262231171"/>
    <trip id="14" depart="14.00" from="57403752#2" to="293821499"/>
    <trip id="15" depart="15.00" from="55055056#3" to="385184672#0"/>
    <trip id="16" depart="16.00" from="260713286" to="9810860#4"/>
    <trip id="17" depart="17.00" from="23997236" to="262026867#0"/>
    <trip id="18" depart="18.00" from="555577126#0" to="296910354"/>
    <trip id="19" depart="19.00" from="598220660#0" to="26468781#2"/>
    <trip id="20" depart="20.00" from="35669455#1" to="-24037759"/>
    <trip id="21" depart="21.00" from="127554077#1" to="224679204#2"/>
    <trip id="22" depart="22.00" from="-24311620#0" to="129383496#7"/>
    <trip id="23" depart="23.00" from="-252121041#3" to="188546236#0"/>
    <trip id="24" depart="24.00" from="312567851" to="24000018"/>
    <trip id="25" depart="25.00" from="23989700" to="127554077#5"/>
    <trip id="26" depart="26.00" from="135198600#0" to="9796906"/>
    <trip id="27" depart="27.00" from="320192376#0" to="294002089#0"/>
    <trip id="28" depart="28.00" from="-485689912" to="384222061"/>
    <trip id="29" depart="29.00" from="-402051782" to="24037540"/>
    <trip id="30" depart="30.00" from="9811244#2" to="310830440"/>
    <trip id="31" depart="31.00" from="262231178" to="327231750#1"/>
    <trip id="32" depart="32.00" from="57401572" to="519772330#0"/>
    <trip id="33" depart="33.00" from="127554077#4" to="-23681389#1"/>
    <trip id="34" depart="34.00" from="226766487#1" to="16608854"/>
    <trip id="35" depart="35.00" from="-896198994#0" to="9797388#0"/>
    <trip id="36" depart="36.00" from="689510349" to="234715489"/>
    <trip id="37" depart="37.00" from="321593791" to="24053261"/>
    <trip id="38" depart="38.00" from="86822276#1" to="24311620#0"/>
    <trip id="39" depart="39.00" from="129726574#1" to="165633889#0"/>
    <trip id="40" depart="40.00" from="262551662#1" to="16606350#1"/>
    <trip id="41" depart="41.00" from="277829991#0" to="8107877"/>
    <trip id="42" depart="42.00" from="24037759" to="128169693"/>
    <trip id="43" depart="43.00" from="9811595" to="252121041#0"/>
    <trip id="44" depart="44.00" from="-252121040#0" to="-24052207#1"/>
    <trip id="45" depart="45.00" from="-260545024#0" to="299715756#1"/>
    <trip id="46" depart="46.00" from="54533182#0" to="24262043"/>
    <trip id="47" depart="47.00" from="-24052353#0" to="24037542#1"/>
    <trip id="48" depart="48.00" from="9811521#2" to="25313884#4"/>
    <trip id="49" depart="49.00" from="9810860#3" to="581325727"/>
</routes>
