<?xml version="1.0" encoding="UTF-8"?>

<!-- generated on 2021-11-28 06:58:29 by Eclipse SUMO polyconvert Version 1.11.0
<configuration xmlns:xsi="http://www.w3.org/2001/XMLSchema-instance" xsi:noNamespaceSchemaLocation="http://sumo.dlr.de/xsd/polyconvertConfiguration.xsd">

    <input>
        <net-file value="buda.net.xml"/>
        <osm-files value="budapestmap.osm"/>
        <type-file value="typemap.xml"/>
    </input>

    <output>
        <output-file value="map.poly.xml"/>
    </output>

    <processing>
        <poi-layer-offset value="5"/>
    </processing>

    <report>
        <xml-validation value="never"/>
    </report>

</configuration>
-->

<additional xmlns:xsi="http://www.w3.org/2001/XMLSchema-instance" xsi:noNamespaceSchemaLocation="http://sumo.dlr.de/xsd/additional_file.xsd">
    <location netOffset="-351138.09,-5258965.20" convBoundary="-16095.69,-56992.46,23964.76,9394.10" origBoundary="18.825609,46.956898,19.349684,47.549911" projParameter="+proj=utm +zone=34 +ellps=WGS84 +datum=WGS84 +units=m +no_defs"/>

    <poly id="105731131" type="leisure" color="207,245,201" fill="1" layer="-2.00" shape="2709.438432,2696.764380 2729.437843,2707.195882 2732.473758,2701.404404 2736.444735,2693.821502 2734.657521,2692.876451 2719.347192,2684.907665 2716.445571,2683.401089 2711.503013,2692.820826 2709.438432,2696.764380"/>
    <poly id="105731140" type="leisure" color="207,245,201" fill="1" layer="-2.00" shape="2744.385642,2740.794173 2751.677819,2717.716067 2749.041986,2716.892279 2747.547488,2721.633344 2741.757349,2739.970200 2744.385642,2740.794173"/>
    <poly id="105731163" type="leisure" color="207,245,201" fill="1" layer="-2.00" shape="2698.202902,2726.713103 2693.425310,2733.682342 2695.234800,2734.915944 2712.256298,2746.522641 2714.334120,2747.938587 2717.846659,2742.824635 2719.112001,2740.980479 2698.202902,2726.713103"/>
    <poly id="105731171" type="leisure" color="207,245,201" fill="1" layer="-2.00" shape="2730.152545,2747.588041 2735.297216,2747.470695 2747.759089,2710.185604 2743.201616,2708.164360 2739.645427,2711.833788 2739.211016,2718.583342 2734.668171,2734.653946 2730.068696,2740.306548 2730.152545,2747.588041"/>
    <poly id="105952959" type="building" color="255,230,230" fill="1" layer="-1.00" shape="2968.346618,4042.392507 2947.780346,4064.622814 2943.025980,4069.767645 2919.722048,4047.797675 2936.319034,4030.470119 2940.351410,4034.139204 2935.019588,4039.999004 2941.710650,4046.037043 2951.076076,4035.739840 2954.136603,4038.510217 2958.212346,4033.949443 2968.346618,4042.392507"/>
    <poly id="105952961" type="building" color="255,230,230" fill="1" layer="-1.00" shape="2949.036149,4008.635718 2950.677227,4006.759986 2956.485870,4000.076550 2974.228722,4015.391045 2966.764768,4023.983905 2954.805054,4013.651496 2949.036149,4008.635718"/>
    <poly id="105952963" type="building" color="255,230,230" fill="1" layer="-1.00" shape="2956.485870,4000.076550 2941.365332,3987.487808 2926.912155,4004.672899 2928.972638,4006.923333 2931.316781,4009.066611 2933.154199,4007.208216 2936.787459,4003.637024 2939.695691,4006.644713 2950.677227,4006.759986 2956.485870,4000.076550"/>
    <poly id="105952964" type="building" color="255,230,230" fill="1" layer="-1.00" shape="2958.212346,4033.949443 2966.764768,4023.983905 2974.228722,4015.391045 2983.917091,4023.478298 2968.346618,4042.392507 2958.212346,4033.949443"/>
    <poly id="105952967" type="building" color="255,230,230" fill="1" layer="-1.00" shape="2951.076076,4035.739840 2945.017521,4029.986253 2940.351410,4034.139204 2936.319034,4030.470119 2944.211061,4021.822059 2946.113671,4024.087557 2958.212346,4033.949443 2954.136603,4038.510217 2951.076076,4035.739840"/>
    <poly id="105952969" type="building" color="255,230,230" fill="1" layer="-1.00" shape="2946.113671,4024.087557 2954.805054,4013.651496 2949.036149,4008.635718 2950.677227,4006.759986 2939.695691,4006.644713 2934.555798,4012.043806 2944.211061,4021.822059 2946.113671,4024.087557"/>
    <poly id="129917685" type="building" color="255,230,230" fill="1" layer="-1.00" shape="2806.956637,2464.802440 2813.657098,2461.176918 2817.561425,2459.066775 2824.354177,2454.004487 2812.735735,2432.410317 2808.998997,2425.531347 2795.824622,2432.198513 2803.490729,2447.030267 2791.594236,2452.953876 2800.531556,2468.287657 2806.956637,2464.802440"/>
    <poly id="129917686" type="building" color="255,230,230" fill="1" layer="-1.00" shape="2911.942511,2407.439817 2908.933929,2409.505317 2895.492563,2418.769860 2898.255018,2425.573099 2900.054261,2430.020689 2920.301055,2422.243324 2911.942511,2407.439817"/>
    <poly id="129917687" type="amenity" color="237,199,199" fill="1" layer="-1.00" shape="2808.584690,2335.836921 2807.524217,2293.340640 2827.922600,2292.831646 2828.982924,2335.327928 2808.584690,2335.836921"/>
    <poly id="129917687#1" type="building" color="255,230,230" fill="1" layer="-1.00" shape="2808.584690,2335.836921 2807.524217,2293.340640 2827.922600,2292.831646 2828.982924,2335.327928 2808.584690,2335.836921"/>
    <poly id="129917687#2" type="tourism" color="207,245,201" fill="1" layer="-2.00" shape="2808.584690,2335.836921 2807.524217,2293.340640 2827.922600,2292.831646 2828.982924,2335.327928 2808.584690,2335.836921"/>
    <poly id="129917688" type="building" color="255,230,230" fill="1" layer="-1.00" shape="2886.169869,2400.065087 2905.742465,2385.499078 2926.936242,2369.747359 2923.134355,2365.994654 2907.366442,2358.437083 2890.521052,2350.895305 2887.026614,2358.866510 2879.081906,2376.978922 2876.500659,2382.881285 2880.932957,2390.754862 2886.169869,2400.065087"/>
    <poly id="129917689" type="building" color="255,230,230" fill="1" layer="-1.00" shape="2823.657906,2479.564424 2819.146981,2471.259172 2813.657098,2461.176918 2806.956637,2464.802440 2812.207157,2474.957381 2816.862636,2483.014381 2823.657906,2479.564424"/>
    <poly id="129917691" type="building" color="255,230,230" fill="1" layer="-1.00" shape="2884.957856,2483.828620 2925.221255,2489.585416 2930.502134,2490.387812 2931.116270,2481.465413 2917.216176,2475.351329 2921.532791,2468.616192 2931.713302,2473.066078 2932.167144,2466.783106 2925.195003,2466.467679 2925.110988,2460.075798 2924.992814,2451.104939 2925.053381,2436.002527 2904.058506,2453.372819 2908.715041,2456.036681 2904.802279,2461.738720 2901.107737,2467.123960 2894.953415,2464.241702 2884.957856,2483.828620"/>
    <poly id="130016834" type="building" color="255,230,230" fill="1" layer="-1.00" shape="2941.744300,2590.620796 2945.775448,2564.277185 2979.699526,2569.425112 2975.668232,2595.768697 2941.744300,2590.620796"/>
    <poly id="130016834#1" type="tourism" color="207,245,201" fill="1" layer="-2.00" shape="2941.744300,2590.620796 2945.775448,2564.277185 2979.699526,2569.425112 2975.668232,2595.768697 2941.744300,2590.620796"/>
    <poly id="131234500" type="building" color="255,230,230" fill="1" layer="-1.00" shape="2736.131614,2408.702026 2744.293983,2415.025662 2752.087561,2421.069395 2767.048201,2408.664116 2762.939486,2401.983498 2756.416612,2408.195596 2750.638832,2402.891049 2759.260435,2395.003038 2756.182102,2389.442059 2751.846714,2393.609078 2744.566860,2400.596245 2736.131614,2408.702026"/>
    <poly id="131234501" type="building" color="255,230,230" fill="1" layer="-1.00" shape="2772.853662,2352.874876 2765.553883,2338.534410 2750.484836,2328.791409 2745.825406,2329.641649 2740.232719,2338.999730 2734.271150,2348.978626 2744.347067,2367.942376 2750.460027,2364.631693 2746.616056,2357.688716 2752.866328,2348.102944 2758.689766,2360.367456 2772.853662,2352.874876"/>
    <poly id="131234502" type="building" color="255,230,230" fill="1" layer="-1.00" shape="2754.105419,2375.093540 2764.113230,2369.895325 2761.557048,2365.021867 2751.556486,2370.208785 2754.105419,2375.093540"/>
    <poly id="131234503" type="building" color="255,230,230" fill="1" layer="-1.00" shape="2763.014460,2392.607492 2771.724861,2388.275673 2769.376786,2383.586058 2760.666657,2387.928992 2763.014460,2392.607492"/>
    <poly id="131234504" type="building" color="255,230,230" fill="1" layer="-1.00" shape="2752.087561,2421.069395 2753.367915,2422.238388 2760.354904,2428.580268 2773.097426,2419.710926 2767.048201,2408.664116 2752.087561,2421.069395"/>
    <poly id="131234505" type="building" color="255,230,230" fill="1" layer="-1.00" shape="2776.820575,2426.345575 2773.097426,2419.710926 2760.354904,2428.580268 2767.490138,2436.030451 2771.158167,2439.853119 2774.493697,2443.339370 2783.367930,2438.024919 2779.826086,2431.708221 2775.031406,2434.685731 2774.875744,2432.676902 2773.455140,2431.022127 2771.320210,2430.341500 2776.820575,2426.345575"/>
    <poly id="131234506" type="building" color="255,230,230" fill="1" layer="-1.00" shape="2786.587341,2428.403631 2794.980230,2424.035290 2792.233607,2418.777375 2783.840713,2423.145720 2786.587341,2428.403631"/>
    <poly id="131234508" type="building" color="255,230,230" fill="1" layer="-1.00" shape="2729.057563,2387.706223 2733.761453,2389.846130 2739.972320,2376.269256 2735.268423,2374.129344 2729.057563,2387.706223"/>
    <poly id="131234509" type="building" color="255,230,230" fill="1" layer="-1.00" shape="2800.541523,2406.171269 2773.097426,2419.710926 2776.820575,2426.345575 2779.826086,2431.708221 2783.367930,2438.024919 2795.824622,2432.198513 2808.998997,2425.531347 2805.670559,2415.684280 2800.541523,2406.171269"/>
    <poly id="131234511" type="building" color="255,230,230" fill="1" layer="-1.00" shape="2774.493697,2443.339370 2783.577736,2457.301709 2793.280925,2472.216045 2800.531556,2468.287657 2791.594236,2452.953876 2783.367930,2438.024919 2774.493697,2443.339370"/>
    <poly id="131234513" type="building" color="255,230,230" fill="1" layer="-1.00" shape="2734.271150,2348.978626 2723.250941,2372.494526 2714.513259,2391.127384 2726.944693,2401.191906 2749.929717,2378.411456 2744.347067,2367.942376 2734.271150,2348.978626"/>
    <poly id="131234515" type="building" color="255,230,230" fill="1" layer="-1.00" shape="2800.541523,2406.171269 2792.211480,2390.711129 2790.686146,2387.880246 2776.288021,2395.045034 2779.881377,2402.216682 2767.048201,2408.664116 2773.097426,2419.710926 2800.541523,2406.171269"/>
    <poly id="131234518" type="building" color="255,230,230" fill="1" layer="-1.00" shape="2781.670662,2370.024194 2777.559340,2362.031474 2772.853662,2352.874876 2758.689766,2360.367456 2750.460027,2364.631693 2744.347067,2367.942376 2749.929717,2378.411456 2753.076921,2384.315431 2781.670662,2370.024194"/>
    <poly id="131234519" type="building" color="255,230,230" fill="1" layer="-1.00" shape="2790.686146,2387.880246 2776.288021,2395.045034 2762.939486,2401.983498 2759.260435,2395.003038 2756.182102,2389.442059 2753.076921,2384.315431 2781.670662,2370.024194 2786.142850,2378.886386 2790.686146,2387.880246"/>
    <poly id="131234523" type="building" color="255,230,230" fill="1" layer="-1.00" shape="2726.944693,2401.191906 2734.423608,2407.310195 2736.131614,2408.702026 2744.566860,2400.596245 2741.444101,2397.482777 2748.933478,2390.434776 2751.846714,2393.609078 2756.182102,2389.442059 2753.076921,2384.315431 2749.929717,2378.411456 2726.944693,2401.191906"/>
    <poly id="132679257" type="building" color="255,230,230" fill="1" layer="-1.00" shape="2520.665191,4966.585431 2517.989719,4968.053509 2496.341419,4979.959981 2502.827459,4991.673854 2505.013167,4995.622367 2508.572912,4993.665110 2518.136840,5010.962071 2520.663378,5009.564440 2530.562338,5004.123669 2521.030224,4986.892613 2529.368674,4982.313776 2520.665191,4966.585431"/>
    <poly id="132679262" type="building" color="255,230,230" fill="1" layer="-1.00" shape="2553.973249,5000.035091 2532.235768,5011.988145 2537.743321,5021.936210 2559.473245,5009.983365 2553.973249,5000.035091"/>
    <poly id="132679263" type="building" color="255,230,230" fill="1" layer="-1.00" shape="2541.202385,4992.770752 2548.277286,4988.879640 2539.747291,4973.458289 2532.672376,4977.349410 2541.202385,4992.770752"/>
    <poly id="132679265" type="building" color="255,230,230" fill="1" layer="-1.00" shape="2442.728808,5023.235788 2430.043019,5029.602739 2432.904621,5035.269030 2445.590122,5028.890972 2442.728808,5023.235788"/>
    <poly id="132679266" type="building" color="255,230,230" fill="1" layer="-1.00" shape="2565.892573,5024.156499 2555.302584,5029.981460 2561.133512,5040.510817 2571.723485,5034.685866 2565.892573,5024.156499"/>
    <poly id="132679267" type="building" color="255,230,230" fill="1" layer="-1.00" shape="2417.999421,5020.096443 2403.818386,5027.223700 2377.517483,5040.448126 2386.204748,5057.622287 2394.726060,5074.489254 2435.207810,5054.137686 2417.999421,5020.096443"/>
    <poly id="132679279" type="building" color="255,230,230" fill="1" layer="-1.00" shape="2539.927850,4955.984188 2544.950307,4957.081727 2552.391232,4970.528727 2561.544915,4987.090976 2538.900770,4999.544846 2529.368674,4982.313776 2520.665191,4966.585431 2539.927850,4955.984188"/>
    <poly id="132679280" type="building" color="255,230,230" fill="1" layer="-1.00" shape="2587.994410,5034.901573 2580.885153,5022.057840 2574.919579,5011.264952 2544.680557,5027.900894 2557.755482,5051.537449 2575.160100,5041.961361 2587.994410,5034.901573"/>
    <poly id="132679282" type="building" color="255,230,230" fill="1" layer="-1.00" shape="2464.894798,5033.222639 2450.103961,5003.958008 2428.676004,5014.724981 2417.999421,5020.096443 2435.207810,5054.137686 2441.420308,5051.013076 2439.010419,5046.236195 2464.894798,5033.222639"/>
    <poly id="132679284" type="building" color="255,230,230" fill="1" layer="-1.00" shape="2574.919579,5011.264952 2567.920680,4998.618633 2561.544915,4987.090976 2538.900770,4999.544846 2530.562338,5004.123669 2520.663378,5009.564440 2527.670455,5022.232742 2534.038448,5033.749439 2544.680557,5027.900894 2574.919579,5011.264952"/>
    <poly id="132679285" type="building" color="255,230,230" fill="1" layer="-1.00" shape="2487.085838,5042.708541 2506.318285,5033.019772 2515.975664,5028.163263 2526.957114,5022.628674 2520.704042,5010.286225 2518.375229,5011.456508 2505.615717,5017.891855 2503.507275,5013.719008 2498.068557,5016.457219 2500.184532,5020.629877 2480.832699,5030.366133 2487.085838,5042.708541"/>
    <poly id="132790827" type="building" color="255,230,230" fill="1" layer="-1.00" shape="2904.088440,4005.887296 2908.369434,4001.399206 2914.528168,4007.239219 2910.247175,4011.727305 2904.088440,4005.887296"/>
    <poly id="132790828" type="building" color="255,230,230" fill="1" layer="-1.00" shape="2919.722048,4047.797675 2902.169280,4031.044120 2923.252429,4008.089077 2925.788992,4010.394353 2928.972638,4006.923333 2931.316781,4009.066611 2934.555798,4012.043806 2944.211061,4021.822059 2936.319034,4030.470119 2919.722048,4047.797675"/>
    <poly id="132790832" type="building" color="255,230,230" fill="1" layer="-1.00" shape="2921.014785,4025.013925 2925.433120,4029.051451 2931.609870,4022.325445 2927.191812,4018.299027 2921.014785,4025.013925"/>
    <poly id="132790833" type="building" color="255,230,230" fill="1" layer="-1.00" shape="2907.090401,3993.624886 2923.252429,4008.089077 2902.169280,4031.044120 2886.466889,4016.579637 2907.090401,3993.624886"/>
    <poly id="132790834" type="building" color="255,230,230" fill="1" layer="-1.00" shape="2924.953084,3973.263328 2941.365332,3987.487808 2926.912155,4004.672899 2923.252429,4008.089077 2907.090401,3993.624886 2924.953084,3973.263328"/>
    <poly id="132790835" type="building" color="255,230,230" fill="1" layer="-1.00" shape="2916.629158,3992.085856 2919.187138,3989.208680 2924.965282,3994.290920 2922.407579,3997.179207 2916.629158,3992.085856"/>
    <poly id="132864578" type="building" color="255,230,230" fill="1" layer="-1.00" shape="2986.097260,4306.683325 2971.362906,4294.440746 3000.652405,4259.772077 3015.422162,4272.225128 3006.528057,4282.677291 2986.097260,4306.683325"/>
    <poly id="132864585" type="building" color="255,230,230" fill="1" layer="-1.00" shape="2971.362906,4294.440746 2949.337275,4275.952728 2972.442435,4249.511305 2979.248054,4241.724374 3000.652405,4259.772077 2971.362906,4294.440746"/>
    <poly id="132864590" type="building" color="255,230,230" fill="1" layer="-1.00" shape="2970.551500,4273.388604 2975.474093,4277.713822 2980.611047,4271.903388 2975.688453,4267.578166 2970.551500,4273.388604"/>
    <poly id="132864592" type="building" color="255,230,230" fill="1" layer="-1.00" shape="2979.248054,4241.724374 2989.555541,4229.935884 2998.368487,4219.852682 3032.515059,4252.138820 3021.607749,4264.954107 3015.422162,4272.225128 3000.652405,4259.772077 2979.248054,4241.724374"/>
    <poly id="132864595" type="building" color="255,230,230" fill="1" layer="-1.00" shape="2979.870944,4260.657298 2984.999834,4254.824830 2990.037322,4259.225035 2984.915962,4265.057311 2979.870944,4260.657298"/>
    <poly id="132908490" type="building" color="255,230,230" fill="1" layer="-1.00" shape="2987.254651,4071.199875 2968.206862,4094.493124 2997.077048,4119.415823 3016.550078,4095.044548 2987.254651,4071.199875"/>
    <poly id="132964510" type="unknown" color="51,128,255" fill="0" layer="-1.00" shape="2472.313586,5012.676111 2480.832699,5030.366133"/>
    <poly id="132964514" type="building" color="255,230,230" fill="1" layer="-1.00" shape="2506.318285,5033.019772 2509.837267,5039.970690 2519.494637,5035.114186 2515.975664,5028.163263 2506.318285,5033.019772"/>
    <poly id="132971406" type="building" color="255,230,230" fill="1" layer="-1.00" shape="2375.157900,4960.687475 2383.319119,4976.707207 2391.210944,4992.199934 2400.964237,4987.262991 2403.754002,4985.847595 2400.718915,4979.874300 2403.040190,4978.704159 2401.487372,4975.662794 2399.166096,4976.832936 2393.017267,4964.754880 2395.643626,4963.432534 2393.979546,4960.160437 2391.353464,4961.493896 2387.708542,4954.334915 2375.157900,4960.687475"/>
    <poly id="132971408" type="building" color="255,230,230" fill="1" layer="-1.00" shape="2429.058258,4894.596633 2426.246689,4896.045920 2413.876583,4902.393868 2425.421134,4924.756319 2440.602763,4916.959112 2429.058258,4894.596633"/>
    <poly id="132971410" type="building" color="255,230,230" fill="1" layer="-1.00" shape="2463.291282,4977.295582 2503.369054,4956.721122 2498.713801,4947.719197 2458.635980,4968.293687 2463.291282,4977.295582"/>
    <poly id="132971411" type="building" color="255,230,230" fill="1" layer="-1.00" shape="2417.027777,4939.478163 2405.154162,4945.491221 2412.974861,4960.852315 2424.855980,4954.839085 2421.932432,4949.107627 2417.027777,4939.478163"/>
    <poly id="132971415" type="building" color="255,230,230" fill="1" layer="-1.00" shape="2413.904464,4837.318641 2409.186279,4827.617791 2420.925570,4824.655011 2421.375630,4835.708189 2413.904464,4837.318641"/>
    <poly id="132971417" type="building" color="255,230,230" fill="1" layer="-1.00" shape="2364.694528,4855.776110 2369.425071,4864.764934 2378.758037,4859.882974 2374.027506,4850.894142 2364.694528,4855.776110"/>
    <poly id="132971418" type="building" color="255,230,230" fill="1" layer="-1.00" shape="2380.182188,4884.556058 2390.756939,4879.020289 2385.892039,4869.779054 2375.317275,4875.314831 2380.182188,4884.556058"/>
    <poly id="132971420" type="building" color="255,230,230" fill="1" layer="-1.00" shape="2365.139505,4870.832636 2387.828699,4858.966337 2372.656418,4830.145109 2350.353337,4842.691232 2365.139505,4870.832636"/>
    <poly id="132971422" type="building" color="255,230,230" fill="1" layer="-1.00" shape="2403.309789,4888.391468 2426.824441,4876.093206 2411.335915,4846.668203 2387.828699,4858.966337 2403.309789,4888.391468"/>
    <poly id="132971425" type="building" color="255,230,230" fill="1" layer="-1.00" shape="2338.851002,4863.829511 2344.356762,4874.288981 2354.901941,4868.776127 2349.395917,4858.305535 2338.851002,4863.829511"/>
    <poly id="132971427" type="building" color="255,230,230" fill="1" layer="-1.00" shape="2424.855980,4954.839085 2412.974861,4960.852315 2421.128167,4976.861173 2433.009259,4970.847959 2429.895287,4964.732064 2424.855980,4954.839085"/>
    <poly id="132971428" type="building" color="255,230,230" fill="1" layer="-1.00" shape="2307.840912,4900.813454 2341.483841,4883.212524 2327.107209,4855.783718 2312.976588,4863.732801 2294.247179,4874.265828 2307.840912,4900.813454"/>
    <poly id="132971429" type="building" color="255,230,230" fill="1" layer="-1.00" shape="2356.671052,4991.719622 2361.876635,5001.930863 2367.605294,5013.174290 2380.914600,5006.435742 2369.987925,4984.980862 2356.671052,4991.719622"/>
    <poly id="132971433" type="building" color="255,230,230" fill="1" layer="-1.00" shape="2501.793353,4946.140917 2496.266761,4935.437194 2453.116854,4957.589815 2458.635980,4968.293687 2498.713801,4947.719197 2501.793353,4946.140917"/>
    <poly id="132971434" type="building" color="255,230,230" fill="1" layer="-1.00" shape="2349.318126,4977.292082 2353.699771,4985.889311 2356.671052,4991.719622 2369.987925,4984.980862 2362.634747,4970.542193 2349.318126,4977.292082"/>
    <poly id="132971435" type="building" color="255,230,230" fill="1" layer="-1.00" shape="2387.828699,4858.966337 2411.335915,4846.668203 2396.171254,4817.846728 2372.656418,4830.145109 2387.828699,4858.966337"/>
    <poly id="132971437" type="building" color="255,230,230" fill="1" layer="-1.00" shape="2427.586365,4833.406504 2427.191396,4824.853957 2431.487600,4824.924306 2430.107004,4833.877152 2427.586365,4833.406504"/>
    <poly id="132971439" type="building" color="255,230,230" fill="1" layer="-1.00" shape="2357.558103,4896.009320 2366.861170,4891.139206 2362.225726,4882.337043 2352.922370,4887.196051 2357.558103,4896.009320"/>
    <poly id="132971441" type="building" color="255,230,230" fill="1" layer="-1.00" shape="2330.136437,4880.461062 2325.081548,4870.857671 2311.993117,4877.701999 2317.048023,4887.305379 2330.136437,4880.461062"/>
    <poly id="132971443" type="building" color="255,230,230" fill="1" layer="-1.00" shape="2343.251865,4903.862652 2337.927932,4893.743349 2328.803367,4898.520077 2334.127312,4908.639371 2343.251865,4903.862652"/>
    <poly id="132971445" type="building" color="255,230,230" fill="1" layer="-1.00" shape="2356.972643,4912.637349 2380.620963,4900.268823 2365.139505,4870.832636 2341.483841,4883.212524 2356.972643,4912.637349"/>
    <poly id="132971446" type="building" color="255,230,230" fill="1" layer="-1.00" shape="2404.382011,4871.640060 2413.410185,4866.921469 2409.439267,4859.381436 2400.411083,4864.100033 2404.382011,4871.640060"/>
    <poly id="132971447" type="building" color="255,230,230" fill="1" layer="-1.00" shape="2387.199208,4843.158270 2398.718862,4837.142931 2395.483487,4830.996732 2383.964102,4837.023190 2387.199208,4843.158270"/>
    <poly id="132971451" type="building" color="255,230,230" fill="1" layer="-1.00" shape="2341.483841,4883.212524 2365.139505,4870.832636 2350.353337,4842.691232 2327.107209,4855.783718 2341.483841,4883.212524"/>
    <poly id="132971452" type="building" color="255,230,230" fill="1" layer="-1.00" shape="2380.620963,4900.268823 2403.309789,4888.391468 2387.828699,4858.966337 2365.139505,4870.832636 2380.620963,4900.268823"/>
    <poly id="132971453" type="building" color="255,230,230" fill="1" layer="-1.00" shape="2340.974173,4960.898890 2343.430742,4965.730166 2349.318126,4977.292082 2362.634747,4970.542193 2354.283295,4954.149171 2340.974173,4960.898890"/>
    <poly id="132971455" type="building" color="255,230,230" fill="1" layer="-1.00" shape="2433.009259,4970.847959 2421.128167,4976.861173 2428.370217,4991.080291 2431.571452,4997.371920 2433.855358,4996.213847 2443.444147,4991.325575 2433.009259,4970.847959"/>
    <poly id="132971458" type="building" color="255,230,230" fill="1" layer="-1.00" shape="2426.759251,4927.347144 2438.200264,4949.489808 2450.228120,4943.317276 2438.794672,4921.174401 2426.759251,4927.347144"/>
    <poly id="132971460" type="building" color="255,230,230" fill="1" layer="-1.00" shape="2484.975397,4878.329263 2472.518997,4885.146284 2479.449071,4897.738625 2491.905451,4890.921618 2484.975397,4878.329263"/>
    <poly id="132971461" type="building" color="255,230,230" fill="1" layer="-1.00" shape="2448.212049,4897.397476 2442.075229,4900.542415 2447.768134,4911.564410 2453.904945,4908.419476 2448.212049,4897.397476"/>
    <poly id="132971462" type="building" color="255,230,230" fill="1" layer="-1.00" shape="2323.329847,4930.238193 2356.972643,4912.637349 2341.483841,4883.212524 2307.840912,4900.813454 2315.095051,4914.598461 2323.329847,4930.238193"/>
    <poly id="132971463" type="building" color="255,230,230" fill="1" layer="-1.00" shape="2426.824441,4876.093206 2450.882154,4863.514566 2436.611678,4836.394217 2424.140473,4842.922588 2412.553878,4848.972913 2426.824441,4876.093206"/>
    <poly id="132971465" type="building" color="255,230,230" fill="1" layer="-1.00" shape="2509.796558,4893.242743 2500.293506,4875.977625 2490.088025,4857.440177 2447.569467,4879.254527 2466.897180,4916.690020 2497.414623,4900.024488 2509.796558,4893.242743"/>
    <poly id="132971466" type="building" color="255,230,230" fill="1" layer="-1.00" shape="2444.270057,4833.233421 2452.133191,4848.182063 2463.548597,4842.213944 2457.327021,4834.452221 2451.670479,4830.301494 2445.506610,4827.253237 2444.270057,4833.233421"/>
    <poly id="132971467" type="building" color="255,230,230" fill="1" layer="-1.00" shape="2391.210944,4992.199934 2401.614162,5012.611554 2414.157185,5006.259237 2410.933626,4999.979296 2405.964023,4990.162427 2403.167008,4991.589123 2400.964237,4987.262991 2391.210944,4992.199934"/>
    <poly id="132971468" type="building" color="255,230,230" fill="1" layer="-1.00" shape="2447.569467,4879.254527 2426.675065,4889.985887 2429.058258,4894.596633 2440.602763,4916.959112 2446.002606,4927.410200 2466.897180,4916.690020 2447.569467,4879.254527"/>
    <poly id="132971469" type="building" color="255,230,230" fill="1" layer="-1.00" shape="2536.135307,4941.111509 2524.035421,4919.118598 2509.796558,4893.242743 2497.414623,4900.024488 2518.314686,4937.987903 2503.651126,4946.016581 2510.518054,4958.499334 2534.672668,4945.284762 2536.135307,4941.111509"/>
    <poly id="132971470" type="building" color="255,230,230" fill="1" layer="-1.00" shape="2443.126039,4810.710610 2455.587200,4815.213619 2464.493040,4820.350535 2466.097544,4821.844936 2472.368043,4827.648315 2479.390165,4836.390819 2484.548007,4845.902795 2450.882154,4863.514566 2436.611678,4836.394217 2443.126039,4810.710610"/>
    <poly id="132971471" type="building" color="255,230,230" fill="1" layer="-1.00" shape="2421.555030,4849.792798 2427.654291,4861.393963 2430.784910,4859.747648 2428.388039,4855.192844 2433.667931,4852.425190 2436.072606,4856.990921 2439.054589,4855.426172 2432.955624,4843.836109 2421.555030,4849.792798"/>
    <poly id="132971472" type="building" color="255,230,230" fill="1" layer="-1.00" shape="2396.171254,4817.846728 2406.648818,4812.335668 2419.288591,4809.528257 2431.090251,4809.054828 2443.126039,4810.710610 2436.611678,4836.394217 2424.140473,4842.922588 2411.335915,4846.668203 2396.171254,4817.846728"/>
    <poly id="132971473" type="building" color="255,230,230" fill="1" layer="-1.00" shape="2340.974173,4960.898890 2354.283295,4954.149171 2361.306249,4950.592733 2356.021157,4940.216683 2354.220797,4941.129151 2351.750879,4942.380875 2350.102942,4939.152865 2344.471242,4942.007255 2345.532505,4944.071236 2335.094844,4949.359019 2340.974173,4960.898890"/>
    <poly id="132975757" type="building" color="255,230,230" fill="1" layer="-1.00" shape="2222.785396,5039.166424 2229.032388,5035.918399 2224.640546,5027.521673 2218.393268,5030.758589 2222.785396,5039.166424"/>
    <poly id="132975758" type="building" color="255,230,230" fill="1" layer="-1.00" shape="2206.416302,4996.886967 2202.467217,4989.324277 2192.746984,4994.371930 2196.696079,5001.934614 2206.416302,4996.886967"/>
    <poly id="132975759" type="building" color="255,230,230" fill="1" layer="-1.00" shape="2322.492360,4996.634812 2306.086045,5005.152478 2310.153212,5012.923554 2326.551982,5004.406087 2322.492360,4996.634812"/>
    <poly id="132975760" type="building" color="255,230,230" fill="1" layer="-1.00" shape="2233.267611,4950.332244 2241.314491,4946.149503 2230.187808,4924.855553 2222.140904,4929.038309 2233.267611,4950.332244"/>
    <poly id="132975761" type="building" color="255,230,230" fill="1" layer="-1.00" shape="2264.236060,5011.494600 2277.972202,5004.355910 2274.039110,4996.826136 2260.302953,5003.964834 2264.236060,5011.494600"/>
    <poly id="132975762" type="building" color="255,230,230" fill="1" layer="-1.00" shape="2242.741457,4970.911473 2261.706079,4961.061809 2258.224116,4954.399219 2239.259476,4964.248894 2242.741457,4970.911473"/>
    <poly id="132975763" type="building" color="255,230,230" fill="1" layer="-1.00" shape="2195.014313,4977.534877 2184.987867,4958.359587 2177.089674,4962.460838 2187.116419,4981.647228 2195.014313,4977.534877"/>
    <poly id="132975765" type="building" color="255,230,230" fill="1" layer="-1.00" shape="2225.835133,4997.645454 2212.357764,4971.840133 2176.436875,4990.499794 2181.414682,5000.027158 2189.921898,5016.304846 2225.835133,4997.645454"/>
    <poly id="132975766" type="building" color="255,230,230" fill="1" layer="-1.00" shape="2230.385242,4910.494597 2249.486473,4947.256788 2272.727575,4935.187139 2253.145720,4897.580682 2242.025372,4903.886551 2230.385242,4910.494597"/>
    <poly id="132975767" type="building" color="255,230,230" fill="1" layer="-1.00" shape="2276.291768,4953.245741 2296.216075,4942.905096 2292.314481,4935.430119 2272.390432,4945.781890 2276.291768,4953.245741"/>