<?xml version="1.0" encoding="UTF-8"?>

<!-- generated on 2021-11-28 06:59:31 by Eclipse SUMO duarouter Version 1.11.0
<configuration xmlns:xsi="http://www.w3.org/2001/XMLSchema-instance" xsi:noNamespaceSchemaLocation="http://sumo.dlr.de/xsd/duarouterConfiguration.xsd">

    <input>
        <net-file value="buda.net.xml"/>
        <route-files value="trips.trips.xml"/>
    </input>

    <output>
        <output-file value="map.rou.xml"/>
        <alternatives-output value="map.rou.alt.xml"/>
    </output>

    <time>
        <begin value="0"/>
        <end value="1000"/>
    </time>

    <report>
        <no-warnings value="true"/>
        <ignore-errors value="true"/>
        <no-step-log value="true"/>
    </report>

</configuration>
-->

<routes xmlns:xsi="http://www.w3.org/2001/XMLSchema-instance" xsi:noNamespaceSchemaLocation="http://sumo.dlr.de/xsd/routes_file.xsd">
    <vehicle id="0" depart="0.00">
        <route edges="314335689 299715756#0 299715756#1 152745514 320896962 24269061#0 24269061#1 24269061#2 319212043 54236646 316027465 24262858#0 24262858#1 259048743#0 259048743#1 259048743#2 259048743#3 259048743#4 259048744 896198994#0 896198994#1 896198994#2 24262716#0 24262716#1 374458658#0 374458658#1 379040191 23226807#0 23226807#1 23226807#2 23226807#3 24311617#0 24311617#1 24311617#2 24268408 312567858#0 24311525#0 24311525#1 24311525#2 24311525#3 24261635#4 24261635#5 -252121041#3 -252121041#2 -252121041#1 -252121041#0 -301886616#1 -301886616#0 -135198589 -16608854"/>
    </vehicle>
    <vehicle id="1" depart="1.00">
        <route edges="158372725 528980945 555577125#0 555577125#1 555577126#0 555577126#1 262231225#0 262231225#1 262231225#2 262231225#3 194077588#0 194077588#1 194077588#2 555578555 128175670 129262112#0"/>
    </vehicle>
    <vehicle id="2" depart="2.00">
        <route edges="391758149 24311621 25313884#5 25313884#6 25313884#7 24262718#0 24262718#1 810560309 374458657 24268408 312567858#0 312567858#1 312567858#2 24268398 574782505 745484620 574782504#0 574782504#1 353288344 324357702 -374628992 -324357706 246920610 345747426#0 345747426#1 54236651#0 54236651#1 324877830#0 324877830#1 324877838 325313602 325313607 325313606#0 325313606#1 325313604"/>
    </vehicle>
    <vehicle id="3" depart="3.00">
        <route edges="79042979#1 56066922 79042980 -402051782 24345264#0 24345264#1 24037547#0 24037547#1 24037547#2 24037548 24037761 24037759 25313884#0 25313884#1 25313884#2 25313884#3 25313884#4 25313884#5 25313884#6 25313884#7 24262718#0 24262718#1 810560309 374458657 24268408 312567858#0 312567858#1 312567858#2 24268398 574782505 745484620 246920613 324357704 246920616 353070851 353070850 246920614#0 246920614#1 -896198994#2 -896198994#1 -896198994#0 -259048744"/>
    </vehicle>
    <vehicle id="5" depart="5.00">
        <route edges="125067697#0 125067697#1 299715750#0 299715750#1 -165691552 -165691549 -165691550#1 -165691550#0 -165691548 -56066465 -165691582#1 -165691582#0 259048744 896198994#0 896198994#1 896198994#2 24262716#0 24262716#1 374458658#0 374458658#1 379040191 23226807#0 23226807#1 23226807#2 23226807#3 24311617#0 24311617#1 24311617#2 24268408 312567858#0 24311525#0 24311525#1 24311525#2 24311525#3 24261635#4 24261635#5 -252121041#3 -252121041#2 -252121041#1 -252121041#0 -301886616#1 -301886616#0 -135198589 -301886605 -24320636 -10223631 -135198600#1 -135198600#0 -252121040#3 -252121040#2 -252121040#1 -252121040#0 -395451170 395451170 252121040#0"/>
    </vehicle>
    <vehicle id="7" depart="7.00">
        <route edges="320192378#0 320192378#1 376337350#0 376337350#1 32637818#3 320192376#0 320192376#1 295484598 295484599#0 295484599#1 753691090 260788198 555578559#0 555578559#1 555578558 188546236#0 188546236#1 963339159#2 555580667#0 555580667#1 555580667#2 24203352 755492435 260901509#0"/>
    </vehicle>
    <vehicle id="8" depart="8.00">
        <route edges="125067712#0 125067712#1 413351508 413351507 125067713 6064691 16608102 553110631 896817112 25313885#0 25313885#1 810564474#0 810564474#1 810564474#2 810564474#3 24037540 25313884#0 25313884#1 25313884#2 25313884#3 25313884#4 25313884#5 25313884#6 25313884#7 24262718#0 24262718#1 810560309 374458657 24268408 312567858#0 312567858#1 312567858#2 24268398 574782505 745484620 246920613 324357704 246920616 353070851 353070850 246920614#0 246920614#1 -24319939 165691541 165691542 293201859 581325727 485689912 6064705 280989223"/>
    </vehicle>
    <vehicle id="9" depart="9.00">
        <route edges="553121428 -553121428 -572287606 -127553969 -127553968 -125067691 24034494#0 24034494#1 -296910354 -24533550 24203473#0 24203473#1 127554368#0 127554368#1 127553910 125067679 127553909#0 127553909#1 127553909#2 127553908 331367117 -331367117 -127553908 -127553909#2 -127553909#1 -127553909#0 -125067679 -127553910"/>
    </vehicle>
    <vehicle id="10" depart="10.00">
        <route edges="55055055#3 189827727 -262231173 -245172281#2 -245172281#1 -245172281#0 -127553889 -127553888#1 -127553888#0 -788802291 -296910355 -296896079 -262231176 -466170111 -262231177#1 -262231177#0 -672774617 -296896078 -128169317#1 -128169317#0 -296896080 -128169316 -296910353 -365005998 -296896081#1 -296896081#0 -262231178 -262231172 -262231174 -553123799 -127553887#1 -127553887#0 -262231175#1 -262231175#0 -60251365 -296910354 -24533550 24203473#0 24203473#1 220010319 184015420#0 184015420#1 866491476 866491477 383898010#0 383898010#1 997401531 384222055 57403752#0 57403752#1 57403752#2 57403752#3 57403752#4 296910363 125067697#0 125067697#1 299715750#0 299715750#1 -165691552 -165691549 -165691550#1 -165691550#0 -165691548 -56066465 -165691582#1 -165691582#0 259048744 896198994#0 896198994#1 896198994#2 -24319939 165691541 165691542 293201859 581325727 485689912 6064705 280989223 24261182 26468781#0 26468781#1 26468781#2 26468781#3 24261227 8107877 383898016 155220692 672659435#0 672659435#1 260268974 155220689 -485689912 -581325727 -293201859 -165691542 24534682 25070156#0 25070156#1 25070158 353379638 353288345"/>
    </vehicle>
    <vehicle id="11" depart="11.00">
        <route edges="23681390#1 23226727#1 -24006577 -674891681 -24006578#1 -24006578#0 -808154518 245403952#0 245403952#1 -245403951#1 -245403951#0 -23989910#2 -23989910#1 -23989910#0 55055056#0 55055056#1 496369652#3 496369652#4 -496369652#4"/>
    </vehicle>
    <vehicle id="12" depart="12.00">
        <route edges="9798564#3 9798564#4 555576783 -555576782 -555576781 -124717762 9794166 124717763 -262231201 -555576774#1 -555576774#0 -496369652#5 23989654 23989658#0"/>
    </vehicle>
    <vehicle id="13" depart="13.00">
        <route edges="-252121041#1 -252121041#0 16608521#0 16608521#1 553121424#0 553121424#1 553121424#2 553121424#3 16608630#0 16608630#1 79042979#0 79042979#1 56066922 79042980 -402051782 -125067690#6 -125067690#5 -125067690#4 -125067690#3 -125067690#2 -125067690#1 -125067690#0 -338928459#1 -338928459#0 -553121433 -553121428 -572287606 -127553969 -127553968 -125067691 -217483071 -17275204 -431400698#1 -431400698#0 -262231171"/>
    </vehicle>
    <vehicle id="14" depart="14.00">
        <route edges="57403752#2 57403752#3 57403752#4 296910363 125067697#0 125067697#1 299715750#0 299715750#1 -165691552 -165691549 -165691550#1 -165691550#0 -165691548 -56066465 -165691582#1 -165691582#0 259048744 896198994#0 896198994#1 896198994#2 24262716#0 24262716#1 374458658#0 374458658#1 379040191 23226807#0 23226807#1 23226807#2 23226807#3 24311617#0 24311617#1 24311617#2 24268408 312567858#0 312567858#1 312567858#2 24268398 574782505 745484620 574782504#0 574782504#1 353288344 324357702 325386556#0 325386556#1 325386556#2 379843843#0 379843843#1 380414153 380414152 290173990 375624656 293821499"/>
    </vehicle>
    <vehicle id="15" depart="15.00">
        <route edges="55055056#3 55055056#4 385184672#0"/>
    </vehicle>
    <vehicle id="16" depart="16.00">
        <route edges="260713286 -466382850 -143766724 -238791006 -245172280 -262231173 -245172281#2 -245172281#1 -245172281#0 -127553889 -127553888#1 -127553888#0 -788802291 -296910355 -296896079 -262231176 262231176 296896079 296910355 124717781 555576772 262551662#0 262551662#1 9810860#3 9810860#4"/>
    </vehicle>
    <vehicle id="17" depart="17.00">
        <route edges="23997236 55055052 364433600 364433601 453993138 619392995 365005998 296910353 9810875#0 9810875#1 308128941 308128942#0 308128942#1 322822557#6 322822557#7 9798704 262026867#0"/>
    </vehicle>
    <vehicle id="18" depart="18.00">
        <route edges="555577126#0 555577126#1 262231225#0 262231225#1 262231225#2 262231225#3 194077588#0 194077588#1 194077588#2 555578555 128175670 129262112#0 129262112#1 129262112#2 443454745 -238791006 -245172280 -262231173 -245172281#2 -245172281#1 -245172281#0 -127553889 -127553888#1 -127553888#0 -788802291 -296910355 -296896079 -262231176 -466170111 -262231177#1 -262231177#0 -672774617 -296896078 -128169317#1 -128169317#0 -296896080 -128169316 -296910353 -365005998 -296896081#1 -296896081#0 -262231178 -262231172 -262231174 -553123799 -127553887#1 -127553887#0 -262231175#1 -262231175#0 -60251365 -296910354 -24533550 24533550 296910354"/>
    </vehicle>
    <vehicle id="20" depart="20.00">
        <route edges="35669455#1 35669455#2 234715490 24262506 260545024#0 260545024#1 55055041 57401570#0 57401570#1 57401570#2 296896089#0 296896089#1 67141216 60201515 57403751#0 57403751#1 57403751#2 895465998 868599613 57403090#0 57403090#1 57403090#2 294002087#0 294002087#1 294002089#0 294002089#1 294002089#2 189826956 56066467 78498991#0 78498991#1 78498991#2 78498991#3 78498991#4 241426120 125067698 296896091 425221271#0 425221271#1 296896090#0 296896090#1 296896090#2 296896090#3 184015425 184015424 380176481 57403756 179940536#0 179940536#1 57717637 127553910 125067679 127553909#0 127553909#1 127553909#2 127553908 331367117 125067680 54236645 54236653#0 54236653#1 54236653#2 60251467 60251468 15244017#0 15244017#1 15244017#2 54236650#0 54236650#1 54236650#2 553121434#0 553121434#1 24345264#0 24345264#1 24037547#0 24037547#1 24037547#2 24037548 24037761 24037759 -24037759"/>
    </vehicle>
    <vehicle id="21" depart="21.00">
        <route edges="127554077#1 127554077#2 127554077#3 127554077#4 9810860#0 9810860#1 9810860#2 -262551662#1 -262551662#0 -555576772 -555576771 -9794352 -262231201 -555576774#1 -555576774#0 -496369652#5 -496369652#4 -496369652#3 -496369652#2 -496369652#1 -496369652#0 -316186226#2 -316186226#1 -316186226#0 -334872366#1 -334872366#0 128169552 700454260 22790427#0 22790427#1 674891679 -875610382 -374743800#1 -374743800#0 -23681389#1 -23681389#0 24036229 224679204#0 224679204#1 224679204#2"/>
    </vehicle>
    <vehicle id="22" depart="22.00">
        <route edges="-24311620#0 24311620#0 24311620#1 24262718#0 24262718#1 810560309 374458657 24268408 312567858#0 24311525#0 24311525#1 24311525#2 24311525#3 24261635#4 24261635#5 -252121041#3 -252121041#2 -252121041#1 -252121041#0 16608521#0 16608521#1 553121424#0 553121424#1 553121424#2 553121424#3 16608630#0 16608630#1 79042979#0 79042979#1 125067714 553110629 553113144 553113143 125067712#0 125067712#1 263642300 646403349#0 646403349#1 366307629 24034846 364403765#0 364403765#1 23681390#1 23226727#1 -24006577 -674891681 -24006578#1 -24006578#0 -808154518 245403952#0 245403952#1 -245403951#1 -245403951#0 16607310#0 16607310#1 496369653#0 496369653#1 496369653#2 32637818#0 32637818#1 32637818#2 32637818#3 320192376#0 320192376#1 295484598 295484599#0 295484599#1 753691090 260788198 292368603 555580668 262231226#0 262231226#1 555580666 24203344#0 129383496#7"/>
    </vehicle>
    <vehicle id="23" depart="23.00">
        <route edges="-252121041#3 -252121041#2 -252121041#1 -252121041#0 16608521#0 16608521#1 553121424#0 553121424#1 553121424#2 553121424#3 16608630#0 16608630#1 79042979#0 79042979#1 125067714 553110629 553113144 553113143 125067712#0 125067712#1 263642300 646403349#0 646403349#1 366307629 24034846 364403765#0 364403765#1 23681390#1 23226727#1 -24006577 -674891681 -24006578#1 -24006578#0 -808154518 245403952#0 245403952#1 -245403951#1 -245403951#0 16607310#0 16607310#1 496369653#0 496369653#1 496369653#2 32637818#0 32637818#1 32637818#2 32637818#3 320192376#0 320192376#1 295484598 295484599#0 295484599#1 753691090 260788198 555578559#0 555578559#1 555578558 188546236#0"/>
    </vehicle>
    <vehicle id="24" depart="24.00">
        <route edges="312567851 838368979 25291372 350890639 127554392 241426120 125067698 296896091 425221271#0 425221271#1 296896090#0 296896090#1 296896090#2 296896090#3 184015425 184015424 380176481 57403756 184015419#0 184015419#1 24533550 296910354 60251365 262231175#0 262231175#1 127553887#0 127553887#1 553123799 262231174 262231172 262231178 296896081#0 296896081#1 365005998 296910353 128169316 296896080 128169317#0 128169317#1 -128169317#1 -128169317#0 24006005 736516758 23989700 55055033#0 55055033#1 785648016 24000018"/>
    </vehicle>
    <vehicle id="25" depart="25.00">
        <route edges="23989700 55055033#0 55055033#1 55055033#2 55055033#3 55055033#4 55055033#5 55055033#6 838550615#0 838550615#1 838550615#2 55055056#0 55055056#1 496369652#3 496369652#4 496369652#5 555576774#0 555576774#1 262231201 9794352 262551664#0 262551664#1 124717762 555576781 555576782 312674279#0 312674279#1 127554077#0 127554077#1 127554077#2 127554077#3 127554077#4 127554077#5"/>
    </vehicle>
    <vehicle id="26" depart="26.00">
        <route edges="135198600#0 135198600#1 10223631 24320636 301886605 -16608854 553121424#0 553121424#1 553121424#2 553121424#3 16608630#0 16608630#1 79042979#0 79042979#1 56066922 79042980 -402051782 -125067690#6 -125067690#5 -125067690#4 -125067690#3 -125067690#2 -125067690#1 -125067690#0 -338928459#1 -338928459#0 -553121433 -553121428 -572287606 -127553969 -127553968 -125067691 -217483071 -17275204 -431400698#1 -431400698#0 -262231171 -330259326 -262231170 -262231168 -262231164 -288194072 25215336#0 25215336#1 25215336#2 25215336#3 9796906"/>
    </vehicle>
    <vehicle id="27" depart="27.00">
        <route edges="320192376#0 320192376#1 295484598 295484599#0 295484599#1 262231225#0 262231225#1 262231225#2 262231225#3 194077588#0 194077588#1 194077588#2 555578555 128175670 129262112#0 129262112#1 129262112#2 443454745 -238791006 -245172280 -262231173 -245172281#2 -245172281#1 -245172281#0 -127553889 -127553888#1 -127553888#0 -788802291 -296910355 -296896079 -262231176 -466170111 -262231177#1 -262231177#0 -672774617 -296896078 -128169317#1 -128169317#0 -296896080 -128169316 -296910353 -365005998 -296896081#1 -296896081#0 -262231178 -262231172 -262231174 -553123799 -127553887#1 -127553887#0 -262231175#1 -262231175#0 -60251365 -296910354 -24533550 24203473#0 24203473#1 220010319 184015420#0 184015420#1 866491476 866491477 383898010#0 383898010#1 997401531 384222055 57403752#0 57403752#1 57403752#2 57403752#3 57403752#4 296910363 125067697#0 125067697#1 299715750#0 299715750#1 56066466 314335689 299715756#0 299715756#1 299715756#2 299715756#3 816162388 314126968 296910364#0 296910364#1 33517077 816221524 262231202 816221525#0 816221525#1 816221525#2 816221525#3 280989224 -55055045#2 -55055045#1 -55055045#0 55055041 57401570#0 57401570#1 57401570#2 296896089#0 296896089#1 67141216 60201515 57403751#0 57403751#1 57403751#2 895465998 868599613 57403090#0 57403090#1 57403090#2 294002087#0 294002087#1 294002089#0"/>
    </vehicle>
    <vehicle id="28" depart="28.00">
        <route edges="-485689912 -581325727 -293201859 -165691542 -165691541 24319939 -896198994#2 -896198994#1 -896198994#0 -259048744 165691582#0 165691582#1 56066465 165691548 165691550#0 165691550#1 165691549 165691552 24251510#0 24251510#1 260666400#0 260666400#1 165691561 165691553 383898012 384222061"/>
    </vehicle>
    <vehicle id="29" depart="29.00">
        <route edges="-402051782 24345264#0 24345264#1 24037547#0 24037547#1 24037547#2 24037548 24037761 24037759 -24037540 -810564474#3 -810564474#2 -810564474#1 -810564474#0 -25313885#1 -25313885#0 25313885#0 25313885#1 810564474#0 810564474#1 810564474#2 810564474#3 24037540"/>
    </vehicle>
    <vehicle id="30" depart="30.00">
        <route edges="9811244#2 9811244#3 9811169 9811081#0 25094721 261301315 296896081#0 296896081#1 365005998 296910353 128169316 296896080 128169317#0 128169317#1 -128169317#1 -128169317#0 24006005 736516758 23989700 23989703 327231751#0 327231751#1 310830440"/>
    </vehicle>
    <vehicle id="31" depart="31.00">
        <route edges="262231178 296896081#0 296896081#1 365005998 296910353 128169316 296896080 128169317#0 128169317#1 -128169317#1 -128169317#0 24006005 736516758 23989700 23989703 327231751#0 327231751#1 310830440 310830434 327231750#0 327231750#1"/>
    </vehicle>
    <vehicle id="32" depart="32.00">
        <route edges="57401572 260760845#0 260760845#1 55055041 57401570#0 57401570#1 57401570#2 296896089#0 296896089#1 67141216 60201515 57403751#0 57403751#1 57403751#2 895465998 868599613 57403090#0 57403090#1 57403090#2 294002087#0 294002087#1 294002089#0 294002089#1 294002089#2 189826956 56066467 78498991#0 78498991#1 78498991#2 78498991#3 78498991#4 241426120 125067698 296896091 425221271#0 425221271#1 296896090#0 296896090#1 296896090#2 296896090#3 184015425 184015424 380176481 57403756 184015419#0 184015419#1 24533550 296910354 60251365 262231175#0 262231175#1 127553887#0 127553887#1 553123799 262231174 262231172 262231178 296896081#0 296896081#1 365005998 296910353 128169316 296896080 128169317#0 128169317#1 296896078 672774617 262231177#0 262231177#1 466170111 262231176 296896079 296910355 788802291 124717764 262551664#0 262551664#1 124717762 555576781 555576782 312674279#0 312674279#1 127554024 127554020#0 127554020#1 555569706 -555569706 -127554020#1 -127554020#0 127554078#0 127554078#1 127554078#2 519772330#0"/>
    </vehicle>
    <vehicle id="33" depart="33.00">
        <route edges="127554077#4 9810860#0 9810860#1 9810860#2 -262551662#1 -262551662#0 -555576772 -555576771 -9794352 -262231201 -555576774#1 -555576774#0 -496369652#5 -496369652#4 -496369652#3 -496369652#2 -496369652#1 -496369652#0 -316186226#2 -316186226#1 -316186226#0 -334872366#1 -334872366#0 128169552 700454260 22790427#0 22790427#1 674891679 -875610382 -374743800#1 -374743800#0 -23681389#1"/>
    </vehicle>
    <vehicle id="34" depart="34.00">
        <route edges="226766487#1 293223000#0 293223000#1 555567152 689888235 -555567150 -555567148 -555567146 -555569706 -127554020#1 -127554020#0 -127554024 -312674279#1 -312674279#0 -555576782 -555576781 -124717762 9794166 124717763 -127553888#1 -127553888#0 -788802291 -296910355 22790425#0 22790425#1 22790425#2 838550615#2 23989910#0 23989910#1 23989910#2 245403951#0 245403951#1 245403950#0 245403950#1 360786542 700454260 22790427#0 22790427#1 674891679 -875610382 -374743800#1 -374743800#0 -23681389#1 -23681389#0 24036229 224679204#0 224679204#1 224679204#2 24005922#0 24005922#1 24042923#0 24042923#1 24042923#2 371909283#0 371909283#1 646403348 413351507 125067713 6064691 16608102 16608770#0 16608770#1 -553121424#3 -553121424#2 -553121424#1 -553121424#0 16608854"/>
    </vehicle>
    <vehicle id="35" depart="35.00">
        <route edges="-896198994#0 -259048744 165691582#0 165691582#1 56066465 165691548 165691550#0 165691550#1 165691549 165691552 24251510#0 24251510#1 260666400#0 260666400#1 165691561 165691553 383898012 384222061 165691577#0 165691577#1 -165691577#1 -165691577#0 -384222061 -383898012 -165691553 152741536 78498991#0 78498991#1 78498991#2 78498991#3 78498991#4 241426120 125067698 8049758#0 8049758#1 312567850#0 312567850#1 165342046 9797316#0 9797316#1 9797316#2 835767930#1 835767930#2 835767930#3 9797388#0"/>
    </vehicle>
    <vehicle id="36" depart="36.00">
        <route edges="689510349 553121434#0 553121434#1 -125067690#6 -125067690#5 -125067690#4 -125067690#3 -125067690#2 -125067690#1 -125067690#0 -338928459#1 -338928459#0 -553121433 -553121428 -572287606 -127553969 -127553968 -125067691 24034494#0 24034494#1 -296910354 -24533550 24203473#0 24203473#1 220010319 184015420#0 184015420#1 866491476 866491477 383898010#0 383898010#1 997401531 384222055 57403752#0 57403752#1 57403752#2 57403752#3 57403752#4 296910363 125067697#0 125067697#1 299715750#0 299715750#1 56066466 314335689 299715756#0 299715756#1 299715756#2 299715756#3 816162388 314126968 296910364#0 296910364#1 33517077 816221524 262231202 816221525#0 816221525#1 816221525#2 816221525#3 280989224 -55055045#2 -55055045#1 -55055045#0 55055041 57401570#0 57401570#1 57401570#2 35669455#0 35669455#1 35669455#2 234715490 234715489"/>
    </vehicle>
    <vehicle id="37" depart="37.00">
        <route edges="321593791 321593790 24262858#0 24262858#1 259048743#0 259048743#1 259048743#2 259048743#3 259048743#4 413354090#0 413354090#1 413354090#2 413354090#3 413354090#4 413354090#5 60251466#0 60251466#1 60251466#2 60251466#3 60251466#4 24036226#0 24036226#1 24036226#2 24036225 296916318#0 296916318#1 296916318#2 25020923 54236653#0 54236653#1 54236653#2 60251467 60251468 -338928459#1 -338928459#0 -553121433 -553121428 -572287606 -127553969 -127553968 -125067691 -217483071 -17275204 127553887#0 127553887#1 553123799 262231174 262231172 262231178 296896081#0 296896081#1 365005998 296910353 128169316 296896080 128169317#0 128169317#1 296896078 672774617 262231177#0 262231177#1 466170111 262231176 296896079 296910355 788802291 127553888#0 127553888#1 127553889 245172281#0 245172281#1 245172281#2 262231173 245172280 238791006 555576770 16605781#0 16605781#1 875602644#0 875602644#1 129260434#0 129260434#1 129262112#1 129262112#2 24053261"/>
    </vehicle>
    <vehicle id="38" depart="38.00">
        <route edges="86822276#1 364403765#0 23681392#1 23681392#2 22790420#0 22790420#1 22790420#2 22790420#3 689510349 553121434#0 553121434#1 24345264#0 24345264#1 24037547#0 24037547#1 24037547#2 24037548 24037761 24037759 25313884#0 25313884#1 25313884#2 25313884#3 25313884#4 25313884#5 25313884#6 25313884#7 -24311620#1 -24311620#0 24311620#0"/>
    </vehicle>
    <vehicle id="39" depart="39.00">
        <route edges="129726574#1 555580669#0 555580669#1 555580669#2 903388590#0 903388590#1 292368604#0 292368604#1 292368604#2 555578559#0 555578559#1 555578558 188546236#0 188546236#1 963339159#2 555580667#0 555580667#1 555580667#2 24203352 755492435 260901509#0 260901509#1 320192378#0 320192378#1 320192378#2 320192378#3 320192378#4 55055054#0 55055054#1 55055054#2 360786544#0 360786544#1 360786544#2 245403950#0 245403950#1 360786542 700454260 22790427#0 22790427#1 674891679 -23226727#2 -23226727#1 -23226727#0 22790420#0 22790420#1 22790420#2 22790420#3 689510349 553121434#0 553121434#1 24345264#0 24345264#1 24037547#0 24037547#1 24037547#2 24037548 24037761 24037759 25313884#0 25313884#1 25313884#2 25313884#3 25313884#4 25313884#5 25313884#6 25313884#7 24262718#0 24262718#1 810560309 374458657 24268408 312567858#0 312567858#1 312567858#2 24268398 574782505 745484620 574782504#0 574782504#1 353288344 55055043#0 55055043#1 324357703#0 324357703#1 324357703#2 165633889#0"/>
    </vehicle>
    <vehicle id="40" depart="40.00">
        <route edges="262551662#1 -262551662#1 -262551662#0 -555576772 -555576771 -9794352 127553889 245172281#0 245172281#1 245172281#2 262231173 245172280 238791006 555576770 16605781#0 16605781#1 875602644#0 875602644#1 537018446#0 537018446#1 367259377 706503391 368978839 368978836 424371021 129262097 292368605#0 292368605#1 292368605#2 903388590#0 903388590#1 292368604#0 292368604#1 292368604#2 555578559#0 555578559#1 555578558 16606350#0 16606350#1"/>
    </vehicle>
    <vehicle id="43" depart="43.00">
        <route edges="9811595 9797564#7 9811218#0 9811218#1 262231164 262231168 262231170 330259326 262231171 431400698#0 431400698#1 17275204 217483071 125067691 127553968 127553969 572287606 553121428 553121433 338928459#0 338928459#1 125067690#0 125067690#1 125067690#2 125067690#3 125067690#4 125067690#5 125067690#6 402051782 24000138 553113144 553113143 125067712#0 125067712#1 413351508 413351507 125067713 6064691 16608102 16608770#0 16608770#1 -553121424#3 -553121424#2 -553121424#1 -553121424#0 -16608521#1 -16608521#0 252121041#0"/>
    </vehicle>
    <vehicle id="44" depart="44.00">
        <route edges="-252121040#0 -395451170 395451170 252121040#0 252121040#1 252121040#2 252121040#3 135198600#0 135198600#1 10223631 24320636 301886605 -16608854 553121424#0 553121424#1 553121424#2 553121424#3 16608630#0 16608630#1 79042979#0 79042979#1 125067714 553110629 553113144 553113143 125067712#0 125067712#1 263642300 646403349#0 646403349#1 366307629 24034846 364403765#0 364403765#1 23681390#1 23226727#1 -24006577 -674891681 -24006578#1 -24006578#0 -808154518 245403952#0 245403952#1 -245403951#1 -245403951#0 16607310#0 16607310#1 496369653#0 496369653#1 496369653#2 32637818#0 32637818#1 23989665#1 914641146#0 914641146#1 23989694#0 23989694#1 23989694#2 23989694#3 -24052207#1"/>
    </vehicle>
    <vehicle id="45" depart="45.00">
        <route edges="-260545024#0 260545024#0 260545024#1 55055041 57401570#0 57401570#1 57401570#2 296896089#0 296896089#1 67141216 60201515 57403751#0 57403751#1 57403751#2 895465998 868599613 57403090#0 57403090#1 57403090#2 294002087#0 294002087#1 294002089#0 294002089#1 294002089#2 189826956 56066467 78498991#0 78498991#1 78498991#2 78498991#3 78498991#4 241426120 125067698 296896091 425221271#0 425221271#1 296896090#0 296896090#1 296896090#2 296896090#3 184015425 184015424 380176481 57403756 179940536#0 777333623 184015420#1 866491476 866491477 383898010#0 383898010#1 997401531 384222055 57403752#0 57403752#1 57403752#2 57403752#3 57403752#4 296910363 125067697#0 125067697#1 299715750#0 299715750#1 56066466 314335689 299715756#0 299715756#1"/>
    </vehicle>
    <vehicle id="46" depart="46.00">
        <route edges="54533182#0 54533182#1 54533182#2 55055052 364433600 364433601 453993138 619392995 -296896081#1 -296896081#0 -262231178 -262231172 -262231174 -553123799 -127553887#1 -127553887#0 -262231175#1 -262231175#0 -60251365 -296910354 -24533550 24203473#0 24203473#1 220010319 184015420#0 184015420#1 866491476 866491477 383898010#0 383898010#1 997401531 384222055 57403752#0 57403752#1 57403752#2 57403752#3 57403752#4 296910363 125067697#0 125067697#1 299715750#0 299715750#1 56066466 314335689 299715756#0 299715756#1 299715756#2 299715756#3 816162388 314126968 296910364#0 296910364#1 33517077 816221524 262231202 816221525#0 816221525#1 816221525#2 816221525#3 280989224 -55055045#2 -55055045#1 -55055045#0 -260545024#1 -260545024#0 24262043"/>
    </vehicle>
    <vehicle id="47" depart="47.00">
        <route edges="-24052353#0 24052353#0 24052353#1 24052353#2 24052353#3 23989681#0 23989681#1 23989681#2 23989681#3 24053262#0 24053262#1 24053262#2 24053262#3 320192378#2 320192378#3 320192378#4 55055054#0 55055054#1 55055054#2 360786544#0 360786544#1 360786544#2 245403950#0 245403950#1 360786542 700454260 22790427#0 22790427#1 674891679 -875610382 -374743800#1 -374743800#0 -23681389#1 -23681389#0 24036229 224679204#0 224679204#1 224679204#2 24005922#0 24005922#1 24042923#0 24042923#1 24042923#2 371909283#0 371909283#1 646403348 413351507 125067713 6064691 553110630 325386555 56066922 24037542#0 24037542#1"/>
    </vehicle>
    <vehicle id="48" depart="48.00">
        <route edges="9811521#2 442915706#0 442915706#1 916003743 466170112#0 9811595 9797564#7 9811218#0 9811218#1 262231164 262231168 262231170 330259326 262231171 431400698#0 431400698#1 17275204 217483071 125067691 127553968 127553969 572287606 553121428 553121433 338928459#0 338928459#1 15244017#0 15244017#1 15244017#2 54236650#0 54236650#1 54236650#2 553121434#0 553121434#1 24345264#0 24345264#1 24037547#0 24037547#1 24037547#2 24037548 24037761 24037759 25313884#0 25313884#1 25313884#2 25313884#3 25313884#4"/>
    </vehicle>
    <vehicle id="49" depart="49.00">
        <route edges="9810860#3 9810860#4 9810860#5 9810860#6 -128169317#1 -128169317#0 -296896080 -128169316 -296910353 -365005998 -296896081#1 -296896081#0 -262231178 -262231172 -262231174 -553123799 -127553887#1 -127553887#0 -262231175#1 -262231175#0 -60251365 -296910354 -24533550 24203473#0 24203473#1 220010319 184015420#0 184015420#1 866491476 866491477 383898010#0 383898010#1 997401531 384222055 57403752#0 57403752#1 57403752#2 57403752#3 57403752#4 296910363 125067697#0 125067697#1 299715750#0 299715750#1 -165691552 -165691549 -165691550#1 -165691550#0 -165691548 -56066465 -165691582#1 -165691582#0 259048744 896198994#0 896198994#1 896198994#2 -24319939 165691541 165691542 293201859 581325727"/>
    </vehicle>
    <vehicle id="50" depart="50.00">
        <route edges="-148348626#0 -252121041#3 -252121041#2 -252121041#1 -252121041#0 252121041#0 252121041#1 252121041#2 252121041#3 -24261635#5 -24261635#4 -24261635#3 -24261635#2 -24261635#1 -24261635#0 24268398 574782505 745484620 574782504#0 574782504#1 353288344 324357702 325386556#0 325386556#1 325386556#2 379843843#0"/>
    </vehicle>
    <vehicle id="52" depart="52.00">
        <route edges="135198589 301886616#0 301886616#1 16608521#0 16608521#1 553121424#0 553121424#1 553121424#2 553121424#3 16608630#0 16608630#1 79042979#0 79042979#1 56066922 79042980 -402051782 -125067690#6 -125067690#5 -125067690#4 -125067690#3 -125067690#2 -125067690#1 -125067690#0 -338928459#1 -338928459#0 -553121433 -553121428 -572287606 -127553969 -127553968 -125067691 24034494#0 24034494#1 -296910354 -24533550 24203473#0 24203473#1 220010319 184015420#0 184015420#1 866491476 866491477 383898010#0 383898010#1 997401531 384222055 57403752#0 57403752#1 57403752#2 57403752#3 57403752#4 296910363 5133894#0 5133894#1 5133894#2 125067729#0 125067729#1 -127554392 -350890639 350890639 127554392 241426120 125067698 8049758#0 8049758#1 312567850#0"/>
    </vehicle>
    <vehicle id="53" depart="53.00">