<?xml version="1.0" encoding="UTF-8"?>
<!-- generated on 2021-11-28 06:59:30.835346 by randomTrips.py v1_11_0+0000-d32ff7d52a3
  options: -n buda.net.xml -r map.rou.xml -e 1000 -l
-->
<routes xmlns:xsi="http://www.w3.org/2001/XMLSchema-instance" xsi:noNamespaceSchemaLocation="http://sumo.dlr.de/xsd/routes_file.xsd">
    <trip id="0" depart="0.00" from="314335689" to="-16608854"/>
    <trip id="1" depart="1.00" from="158372725" to="129262112#0"/>
    <trip id="2" depart="2.00" from="391758149" to="325313604"/>
    <trip id="3" depart="3.00" from="79042979#1" to="-259048744"/>
    <trip id="4" depart="4.00" from="24256000#0" to="-23226727#1"/>
    <trip id="5" depart="5.00" from="125067697#0" to="252121040#0"/>
    <trip id="6" depart="6.00" from="-172779395#4" to="125067697#1"/>
    <trip id="7" depart="7.00" from="320192378#0" to="260901509#0"/>
    <trip id="8" depart="8.00" from="125067712#0" to="280989223"/>
    <trip id="9" depart="9.00" from="553121428" to="-127553910"/>
    <trip id="10" depart="10.00" from="55055055#3" to="353288345"/>
    <trip id="11" depart="11.00" from="23681390#1" to="-496369652#4"/>
    <trip id="12" depart="12.00" from="9798564#3" to="23989658#0"/>
    <trip id="13" depart="13.00" from="-252121041#1" to="-262231171"/>
    <trip id="14" depart="14.00" from="57403752#2" to="293821499"/>
    <trip id="15" depart="15.00" from="55055056#3" to="385184672#0"/>
    <trip id="16" depart="16.00" from="260713286" to="9810860#4"/>
    <trip id="17" depart="17.00" from="23997236" to="262026867#0"/>
    <trip id="18" depart="18.00" from="555577126#0" to="296910354"/>
    <trip id="19" depart="19.00" from="598220660#0" to="26468781#2"/>
    <trip id="20" depart="20.00" from="35669455#1" to="-24037759"/>
    <trip id="21" depart="21.00" from="127554077#1" to="224679204#2"/>
    <trip id="22" depart="22.00" from="-24311620#0" to="129383496#7"/>
    <trip id="23" depart="23.00" from="-252121041#3" to="188546236#0"/>
    <trip id="24" depart="24.00" from="312567851" to="24000018"/>
    <trip id="25" depart="25.00" from="23989700" to="127554077#5"/>
    <trip id="26" depart="26.00" from="135198600#0" to="9796906"/>
    <trip id="27" depart="27.00" from="320192376#0" to="294002089#0"/>
    <trip id="28" depart="28.00" from="-485689912" to="384222061"/>
    <trip id="29" depart="29.00" from="-402051782" to="24037540"/>
    <trip id="30" depart="30.00" from="9811244#2" to="310830440"/>
    <trip id="31" depart="31.00" from="262231178" to="327231750#1"/>
    <trip id="32" depart="32.00" from="57401572" to="519772330#0"/>
    <trip id="33" depart="33.00" from="127554077#4" to="-23681389#1"/>
    <trip id="34" depart="34.00" from="226766487#1" to="16608854"/>
    <trip id="35" depart="35.00" from="-896198994#0" to="9797388#0"/>
    <trip id="36" depart="36.00" from="689510349" to="234715489"/>
    <trip id="37" depart="37.00" from="321593791" to="24053261"/>
    <trip id="38" depart="38.00" from="86822276#1" to="24311620#0"/>
    <trip id="39" depart="39.00" from="129726574#1" to="165633889#0"/>
    <trip id="40" depart="40.00" from="262551662#1" to="16606350#1"/>
    <trip id="41" depart="41.00" from="277829991#0" to="8107877"/>
    <trip id="42" depart="42.00" from="24037759" to="128169693"/>
    <trip id="43" depart="43.00" from="9811595" to="252121041#0"/>
    <trip id="44" depart="44.00" from="-252121040#0" to="-24052207#1"/>
    <trip id="45" depart="45.00" from="-260545024#0" to="299715756#1"/>
    <trip id="46" depart="46.00" from="54533182#0" to="24262043"/>
    <trip id="47" depart="47.00" from="-24052353#0" to="24037542#1"/>
    <trip id="48" depart="48.00" from="9811521#2" to="25313884#4"/>
    <trip id="49" depart="49.00" from="9810860#3" to="581325727"/>
    <trip id="50" depart="50.00" from="-148348626#0" to="379843843#0"/>
    <trip id="51" depart="51.00" from="331440627" to="259204127#1"/>
    <trip id="52" depart="52.00" from="135198589" to="312567850#0"/>
    <trip id="53" depart="53.00" from="-260713286" to="24269061#1"/>
    <trip id="54" depart="54.00" from="24269291#1" to="9798439#2"/>
    <trip id="55" depart="55.00" from="68741654" to="16606350#1"/>
    <trip id="56" depart="56.00" from="252121040#0" to="-581325727"/>
    <trip id="57" depart="57.00" from="86822276#0" to="646403349#1"/>
    <trip id="58" depart="58.00" from="184015419#0" to="308128942#1"/>
    <trip id="59" depart="59.00" from="295484598" to="-466382850"/>
    <trip id="60" depart="60.00" from="466170112#2" to="259204129"/>
    <trip id="61" depart="61.00" from="525190380#0" to="25313884#5"/>
    <trip id="62" depart="62.00" from="-10223631" to="23681392#1"/>
    <trip id="63" depart="63.00" from="-165691550#1" to="9796546"/>
    <trip id="64" depart="64.00" from="700454260" to="555578555"/>
    <trip id="65" depart="65.00" from="207394645" to="-24269068#0"/>
    <trip id="66" depart="66.00" from="691768640" to="9797564#2"/>
    <trip id="67" depart="67.00" from="-245403950#1" to="25076976#2"/>
    <trip id="68" depart="68.00" from="-24210220#1" to="466170116#1"/>
    <trip id="69" depart="69.00" from="485488643" to="-346285619"/>
    <trip id="70" depart="70.00" from="24419993" to="262026866#1"/>
    <trip id="71" depart="71.00" from="129726574#1" to="660180535"/>
    <trip id="72" depart="72.00" from="24261182" to="127554078#1"/>
    <trip id="73" depart="73.00" from="260901509#1" to="385184672#0"/>
    <trip id="74" depart="74.00" from="-581325727" to="23226727#2"/>
    <trip id="75" depart="75.00" from="9811521#2" to="318636370"/>
    <trip id="76" depart="76.00" from="24262718#1" to="252121041#3"/>
    <trip id="77" depart="77.00" from="-262231175#0" to="129262112#2"/>
    <trip id="78" depart="78.00" from="23681389#1" to="277829991#1"/>
    <trip id="79" depart="79.00" from="127554077#5" to="128169693"/>
    <trip id="80" depart="80.00" from="-24210221" to="301886616#1"/>
    <trip id="81" depart="81.00" from="127554077#4" to="835767930#0"/>
    <trip id="82" depart="82.00" from="581325727" to="-252121040#1"/>
    <trip id="83" depart="83.00" from="128169648#0" to="324357703#1"/>
    <trip id="84" depart="84.00" from="124717762" to="-346285619"/>
    <trip id="85" depart="85.00" from="9796632#1" to="262551662#4"/>
    <trip id="86" depart="86.00" from="24333262#5" to="54236651#0"/>
    <trip id="87" depart="87.00" from="55055056#3" to="-914641145"/>
    <trip id="88" depart="88.00" from="-252121041#2" to="24262718#1"/>
    <trip id="89" depart="89.00" from="24261182" to="24320176#1"/>
    <trip id="90" depart="90.00" from="380414152" to="324357706"/>
    <trip id="91" depart="91.00" from="9811081#0" to="-262231174"/>
    <trip id="92" depart="92.00" from="24052208#1" to="23989664#0"/>
    <trip id="93" depart="93.00" from="598220660#0" to="165691548"/>
    <trip id="94" depart="94.00" from="-555576774#0" to="24269280#1"/>
    <trip id="95" depart="95.00" from="24256000#0" to="188546236#0"/>
    <trip id="96" depart="96.00" from="129383496#2" to="9615973#1"/>
    <trip id="97" depart="97.00" from="24269061#1" to="581325727"/>
    <trip id="98" depart="98.00" from="262231168" to="-24052353#3"/>
    <trip id="99" depart="99.00" from="9811595" to="555580667#1"/>
    <trip id="100" depart="100.00" from="9810860#2" to="963339159#1"/>
    <trip id="101" depart="101.00" from="57403752#4" to="-555567153#1"/>
    <trip id="102" depart="102.00" from="25070158" to="128169552"/>
    <trip id="103" depart="103.00" from="24052207#1" to="-24269068#1"/>
    <trip id="104" depart="104.00" from="23997236" to="9811081#1"/>
    <trip id="105" depart="105.00" from="129726574#1" to="54236650#2"/>
    <trip id="106" depart="106.00" from="24269305#0" to="24262043"/>
    <trip id="107" depart="107.00" from="9798564#3" to="9811521#2"/>
    <trip id="108" depart="108.00" from="262231177#0" to="379040190"/>
    <trip id="109" depart="109.00" from="-346293388" to="22790420#2"/>
    <trip id="110" depart="110.00" from="9810860#2" to="26469304#1"/>
    <trip id="111" depart="111.00" from="262026866#1" to="430266070"/>
    <trip id="112" depart="112.00" from="-24035721" to="269078757#4"/>
    <trip id="113" depart="113.00" from="252121041#1" to="57690817"/>
    <trip id="114" depart="114.00" from="-365005998" to="9810678#0"/>
    <trip id="115" depart="115.00" from="-24311620#0" to="-8107877"/>
    <trip id="116" depart="116.00" from="292368607#0" to="325313602"/>
    <trip id="117" depart="117.00" from="128169552" to="-324357703#1"/>
    <trip id="118" depart="118.00" from="78498991#1" to="165633888"/>
    <trip id="119" depart="119.00" from="292368607#0" to="296910354"/>
    <trip id="120" depart="120.00" from="24210221" to="269078757#2"/>
    <trip id="121" depart="121.00" from="25313884#2" to="9796768"/>
    <trip id="122" depart="122.00" from="-674891681" to="376337350#2"/>
    <trip id="123" depart="123.00" from="128169648#1" to="24053261"/>
    <trip id="124" depart="124.00" from="325386556#2" to="22790424#0"/>
    <trip id="125" depart="125.00" from="226766487#1" to="450667510"/>
    <trip id="126" depart="126.00" from="-24269064" to="24311617#1"/>
    <trip id="127" depart="127.00" from="9811595" to="9811521#2"/>
    <trip id="128" depart="128.00" from="-24269068#0" to="127554078#2"/>
    <trip id="129" depart="129.00" from="129726574#1" to="9796632#1"/>
    <trip id="130" depart="130.00" from="722397831#0" to="706503392"/>
    <trip id="131" depart="131.00" from="23989700" to="-530522423"/>
    <trip id="132" depart="132.00" from="555578558" to="364403760"/>
    <trip id="133" depart="133.00" from="296896090#2" to="9811218#0"/>
    <trip id="134" depart="134.00" from="320192378#3" to="-128169317#1"/>
    <trip id="135" depart="135.00" from="55383013#0" to="22790424#0"/>
    <trip id="136" depart="136.00" from="324357703#1" to="9796906"/>
    <trip id="137" depart="137.00" from="-296169138" to="-301886616#0"/>
    <trip id="138" depart="138.00" from="-259048744" to="262026867#1"/>
    <trip id="139" depart="139.00" from="148348626#0" to="293821500#0"/>
    <trip id="140" depart="140.00" from="375624656" to="127553887#1"/>
    <trip id="141" depart="141.00" from="312567850#0" to="16606350#1"/>
    <trip id="142" depart="142.00" from="25076992#1" to="835767930#0"/>
    <trip id="143" depart="143.00" from="57403090#2" to="-262231167"/>
    <trip id="144" depart="144.00" from="24261182" to="183402237"/>
    <trip id="145" depart="145.00" from="-125067690#2" to="498510558#0"/>
    <trip id="146" depart="146.00" from="312567853" to="16606350#1"/>
    <trip id="147" depart="147.00" from="404468758#2" to="262026866#1"/>
    <trip id="148" depart="148.00" from="24261849" to="-129381358"/>
    <trip id="149" depart="149.00" from="-24269092" to="722397831#1"/>
    <trip id="150" depart="150.00" from="835767928" to="260901509#0"/>
    <trip id="151" depart="151.00" from="555580666" to="269078757#0"/>
    <trip id="152" depart="152.00" from="-324357703#1" to="-346285619"/>
    <trip id="153" depart="153.00" from="219737809#1" to="8107877"/>
    <trip id="154" depart="154.00" from="55055033#6" to="581325727"/>
    <trip id="155" depart="155.00" from="8107877" to="127554077#5"/>
    <trip id="156" depart="156.00" from="129383496#1" to="-262551662#0"/>
    <trip id="157" depart="157.00" from="528980945" to="722397831#1"/>
    <trip id="158" depart="158.00" from="24052353#2" to="296910364#0"/>
    <trip id="159" depart="159.00" from="-346293388" to="9796546"/>
    <trip id="160" depart="160.00" from="6064691" to="9810875#1"/>
    <trip id="161" depart="161.00" from="553121434#0" to="722397831#0"/>
    <trip id="162" depart="162.00" from="-16608854" to="404468758#3"/>
    <trip id="163" depart="163.00" from="23226727#0" to="9796632#0"/>
    <trip id="164" depart="164.00" from="55055055#1" to="598220660#0"/>
    <trip id="165" depart="165.00" from="553121434#0" to="16608521#0"/>
    <trip id="166" depart="166.00" from="54236651#0" to="-288194072"/>
    <trip id="167" depart="167.00" from="663022298" to="581325727"/>
    <trip id="168" depart="168.00" from="125067713" to="555567147"/>
    <trip id="169" depart="169.00" from="24311526" to="22790427#1"/>
    <trip id="170" depart="170.00" from="55055033#5" to="129383496#2"/>
    <trip id="171" depart="171.00" from="-16608521#0" to="10223942#1"/>
    <trip id="172" depart="172.00" from="22790427#0" to="598220660#0"/>
    <trip id="173" depart="173.00" from="9810860#0" to="188546236#1"/>
    <trip id="174" depart="174.00" from="316027465" to="24203344#0"/>
    <trip id="175" depart="175.00" from="9811056#1" to="259056233"/>
    <trip id="176" depart="176.00" from="9797316#0" to="-301886616#0"/>
    <trip id="177" depart="177.00" from="9810860#2" to="-581325727"/>
    <trip id="178" depart="178.00" from="9810678#1" to="16607581#0"/>
    <trip id="179" depart="179.00" from="-259204129" to="24269061#1"/>
    <trip id="180" depart="180.00" from="380414152" to="23310666"/>
    <trip id="181" depart="181.00" from="294499588#0" to="252121041#1"/>
    <trip id="182" depart="182.00" from="24005698#0" to="26468781#2"/>
    <trip id="183" depart="183.00" from="129383496#6" to="365878938"/>
    <trip id="184" depart="184.00" from="-124717762" to="9615973#2"/>
    <trip id="185" depart="185.00" from="260901509#0" to="379040192"/>
    <trip id="186" depart="186.00" from="413351507" to="324357703#1"/>
    <trip id="187" depart="187.00" from="23989681#2" to="-252121040#0"/>
    <trip id="188" depart="188.00" from="324357703#1" to="23989396#2"/>
    <trip id="189" depart="189.00" from="226766487#0" to="57403090#1"/>
    <trip id="190" depart="190.00" from="376337350#0" to="22790424#0"/>
    <trip id="191" depart="191.00" from="224679204#0" to="24203344#1"/>
    <trip id="192" depart="192.00" from="24052208#1" to="22790420#1"/>
    <trip id="193" depart="193.00" from="-262551662#3" to="24261297#0"/>
    <trip id="194" depart="194.00" from="9797316#1" to="325313606#1"/>
    <trip id="195" depart="195.00" from="817537158#0" to="296896080"/>
    <trip id="196" depart="196.00" from="189826951#1" to="262026864#1"/>
    <trip id="197" depart="197.00" from="-10223631" to="224679204#0"/>
    <trip id="198" depart="198.00" from="24262280" to="26469304#1"/>
    <trip id="199" depart="199.00" from="320896963#0" to="24314355#1"/>
    <trip id="200" depart="200.00" from="24269061#1" to="128169552"/>
    <trip id="201" depart="201.00" from="24333262#6" to="816162388"/>
    <trip id="202" depart="202.00" from="55055033#6" to="-555576772"/>
    <trip id="203" depart="203.00" from="-24533550" to="252121041#2"/>
    <trip id="204" depart="204.00" from="310830434" to="23989654"/>
    <trip id="205" depart="205.00" from="555567150" to="450667509#0"/>
    <trip id="206" depart="206.00" from="32637818#1" to="129262112#2"/>
    <trip id="207" depart="207.00" from="-581325727" to="-16608854"/>
    <trip id="208" depart="208.00" from="129262097" to="24419993"/>
    <trip id="209" depart="209.00" from="57690816" to="-252121041#1"/>
    <trip id="210" depart="210.00" from="24203344#0" to="299715756#2"/>
    <trip id="211" depart="211.00" from="-57401581" to="353070850"/>
    <trip id="212" depart="212.00" from="25094721" to="15244017#1"/>
    <trip id="213" depart="213.00" from="321593791" to="-127553908"/>
    <trip id="214" depart="214.00" from="450667510" to="496369653#2"/>
    <trip id="215" depart="215.00" from="-259048744" to="24262280"/>
    <trip id="216" depart="216.00" from="-55055053#1" to="9798564#3"/>
    <trip id="217" depart="217.00" from="252446247" to="-24052353#2"/>
    <trip id="218" depart="218.00" from="129383496#1" to="57403090#1"/>
    <trip id="219" depart="219.00" from="24269305#1" to="55055055#2"/>
    <trip id="220" depart="220.00" from="324877830#0" to="9811244#0"/>
    <trip id="221" depart="221.00" from="292368607#1" to="9797564#4"/>
    <trip id="222" depart="222.00" from="78498991#3" to="295380861"/>
    <trip id="223" depart="223.00" from="376337350#0" to="252121040#0"/>
    <trip id="224" depart="224.00" from="555577126#0" to="262026864#1"/>
    <trip id="225" depart="225.00" from="8107349" to="413351508"/>
    <trip id="226" depart="226.00" from="24419979" to="16606350#1"/>
    <trip id="227" depart="227.00" from="129262112#2" to="308128942#1"/>
    <trip id="228" depart="228.00" from="485488643" to="25215336#2"/>
    <trip id="229" depart="229.00" from="308128941" to="183402237"/>
    <trip id="230" depart="230.00" from="-24269138" to="219737809#1"/>
    <trip id="231" depart="231.00" from="148348626#0" to="23681390#1"/>
    <trip id="232" depart="232.00" from="261301315" to="-346285619"/>
    <trip id="233" depart="233.00" from="127554077#6" to="346293388"/>
    <trip id="234" depart="234.00" from="35907768#1" to="-24533550"/>
    <trip id="235" depart="235.00" from="24052353#3" to="260713286"/>
    <trip id="236" depart="236.00" from="24210220#0" to="127554077#1"/>
    <trip id="237" depart="237.00" from="24256000#0" to="835767928"/>
    <trip id="238" depart="238.00" from="277829991#0" to="346293388"/>
    <trip id="239" depart="239.00" from="581325727" to="496369652#1"/>
    <trip id="240" depart="240.00" from="24000001" to="-127553910"/>
    <trip id="241" depart="241.00" from="23989423" to="463013992"/>
    <trip id="242" depart="242.00" from="57716764#1" to="9798439#1"/>
    <trip id="243" depart="243.00" from="24210220#2" to="425221271#1"/>
    <trip id="244" depart="244.00" from="262231164" to="293821499"/>
    <trip id="245" depart="245.00" from="125067712#0" to="128169693"/>
    <trip id="246" depart="246.00" from="24262577" to="-23226727#0"/>
    <trip id="247" depart="247.00" from="23311000" to="32637818#1"/>
    <trip id="248" depart="248.00" from="24052208#3" to="-55363141"/>
    <trip id="249" depart="249.00" from="24314355#1" to="-346285619"/>
    <trip id="250" depart="250.00" from="299715756#2" to="-22790430#1"/>
    <trip id="251" depart="251.00" from="24037540" to="262231178"/>
    <trip id="252" depart="252.00" from="-172779395#4" to="312567851"/>
    <trip id="253" depart="253.00" from="-296896080" to="24314201"/>
    <trip id="254" depart="254.00" from="-23997226" to="24037540"/>
    <trip id="255" depart="255.00" from="-914641146#1" to="23681393#1"/>
    <trip id="256" depart="256.00" from="466170112#0" to="24037540"/>
    <trip id="257" depart="257.00" from="462418493" to="555578555"/>
    <trip id="258" depart="258.00" from="129383496#5" to="-25215335#0"/>
    <trip id="259" depart="259.00" from="-165691550#0" to="259204129"/>
    <trip id="260" depart="260.00" from="997401531" to="23989694#3"/>
    <trip id="261" depart="261.00" from="320192378#0" to="54236646"/>
    <trip id="262" depart="262.00" from="320192378#2" to="465860667"/>
    <trip id="263" depart="263.00" from="9797564#4" to="125067697#1"/>
    <trip id="264" depart="264.00" from="-165691552" to="-466382850"/>
    <trip id="265" depart="265.00" from="-262551662#2" to="324357703#1"/>
    <trip id="266" depart="266.00" from="262551662#4" to="128169648#2"/>
    <trip id="267" depart="267.00" from="346293388" to="496369652#4"/>
    <trip id="268" depart="268.00" from="-466170116#0" to="293821500#3"/>
    <trip id="269" depart="269.00" from="431400698#0" to="-301886605"/>
    <trip id="270" depart="270.00" from="555567153#1" to="9810791"/>
    <trip id="271" depart="271.00" from="-259204129" to="-172779395#1"/>
    <trip id="272" depart="272.00" from="224679204#2" to="325313606#1"/>
    <trip id="273" depart="273.00" from="9798564#3" to="24053262#2"/>
    <trip id="274" depart="274.00" from="374458658#1" to="-252121041#1"/>
    <trip id="275" depart="275.00" from="346285619" to="299715756#1"/>
    <trip id="276" depart="276.00" from="-25215335#0" to="498510558#1"/>
    <trip id="277" depart="277.00" from="57690817" to="293178620"/>
    <trip id="278" depart="278.00" from="-262231175#0" to="9811081#0"/>
    <trip id="279" depart="279.00" from="54236641" to="23989694#0"/>
    <trip id="280" depart="280.00" from="24261849" to="24005922#0"/>
    <trip id="281" depart="281.00" from="252121041#1" to="23989665#0"/>
    <trip id="282" depart="282.00" from="57686522" to="555576748#1"/>
    <trip id="283" depart="283.00" from="-25215336#3" to="9810678#0"/>
    <trip id="284" depart="284.00" from="312567851" to="555576782"/>
    <trip id="285" depart="285.00" from="360786544#1" to="24269061#1"/>
    <trip id="286" depart="286.00" from="385184672#0" to="9810791"/>
    <trip id="287" depart="287.00" from="148348626#0" to="553121434#0"/>
    <trip id="288" depart="288.00" from="260901509#0" to="25025552#2"/>
    <trip id="289" depart="289.00" from="24262577" to="385184672#1"/>
    <trip id="290" depart="290.00" from="148348626#0" to="574782504#1"/>
    <trip id="291" depart="291.00" from="555577126#0" to="-259048744"/>
    <trip id="292" depart="292.00" from="722397831#1" to="15244017#1"/>
    <trip id="293" depart="293.00" from="24314201" to="294002089#1"/>
    <trip id="294" depart="294.00" from="23997236" to="-23226727#0"/>
    <trip id="295" depart="295.00" from="57690817" to="-672774617"/>
    <trip id="296" depart="296.00" from="-914641146#1" to="55055053#0"/>
    <trip id="297" depart="297.00" from="23681390#1" to="722397831#0"/>
    <trip id="298" depart="298.00" from="353070851" to="183402237"/>
    <trip id="299" depart="299.00" from="-135198600#0" to="9797564#2"/>
    <trip id="300" depart="300.00" from="-245403950#1" to="379079642"/>
    <trip id="301" depart="301.00" from="25076992#1" to="466170112#2"/>
    <trip id="302" depart="302.00" from="346285619" to="314530071"/>
    <trip id="303" depart="303.00" from="25078634#1" to="55055033#6"/>
    <trip id="304" depart="304.00" from="-252121041#1" to="129262097"/>
    <trip id="305" depart="305.00" from="346285619" to="22790430#1"/>
    <trip id="306" depart="306.00" from="271000155" to="24333262#6"/>
    <trip id="307" depart="307.00" from="259204127#1" to="24262280"/>
    <trip id="308" depart="308.00" from="425221271#1" to="23989396#2"/>
    <trip id="309" depart="309.00" from="353288345" to="172779395#4"/>
    <trip id="310" depart="310.00" from="129383496#4" to="-324357703#1"/>
    <trip id="311" depart="311.00" from="-555576782" to="-324357703#1"/>
    <trip id="312" depart="312.00" from="260713286" to="466382850"/>
    <trip id="313" depart="313.00" from="-555567153#1" to="128169648#1"/>
    <trip id="314" depart="314.00" from="25025552#1" to="380414152"/>
    <trip id="315" depart="315.00" from="9810939" to="25277956#0"/>
    <trip id="316" depart="316.00" from="16604632" to="-262231177#1"/>
    <trip id="317" depart="317.00" from="-57401581" to="129383496#2"/>
    <trip id="318" depart="318.00" from="-55055055#3" to="-148348626#0"/>
    <trip id="319" depart="319.00" from="260545024#0" to="183402237"/>
    <trip id="320" depart="320.00" from="9810875#0" to="262026867#3"/>
    <trip id="321" depart="321.00" from="346285619" to="-334872366#0"/>
    <trip id="322" depart="322.00" from="660180535" to="25076992#4"/>
    <trip id="323" depart="323.00" from="663022298" to="263783106#1"/>
    <trip id="324" depart="324.00" from="24333261" to="24269094"/>
    <trip id="325" depart="325.00" from="-555567150" to="-24052353#3"/>
    <trip id="326" depart="326.00" from="9797316#2" to="245403951#0"/>
    <trip id="327" depart="327.00" from="555567156" to="24203344#0"/>
    <trip id="328" depart="328.00" from="-24269076" to="299715756#2"/>
    <trip id="329" depart="329.00" from="-24006044" to="-431400698#0"/>
    <trip id="330" depart="330.00" from="262551662#3" to="22790425#2"/>
    <trip id="331" depart="331.00" from="9811464#0" to="-316186226#1"/>
    <trip id="332" depart="332.00" from="466382850" to="293821500#3"/>
    <trip id="333" depart="333.00" from="54533180" to="129381358"/>
    <trip id="334" depart="334.00" from="25313884#2" to="24269303#1"/>
    <trip id="335" depart="335.00" from="24269061#1" to="581325727"/>
    <trip id="336" depart="336.00" from="9811244#2" to="22790427#1"/>
    <trip id="337" depart="337.00" from="299715756#1" to="294002089#1"/>
    <trip id="338" depart="338.00" from="402051782" to="9797564#2"/>
    <trip id="339" depart="339.00" from="-8107877" to="127554077#6"/>
    <trip id="340" depart="340.00" from="322822557#6" to="-496369652#5"/>
    <trip id="341" depart="341.00" from="-496369652#4" to="-252121041#1"/>
    <trip id="342" depart="342.00" from="-125067680" to="24269303#1"/>
    <trip id="343" depart="343.00" from="292368605#0" to="226766487#1"/>
    <trip id="344" depart="344.00" from="127554077#6" to="364403765#2"/>
    <trip id="345" depart="345.00" from="353288345" to="24269313#0"/>
    <trip id="346" depart="346.00" from="346285619" to="9615973#2"/>
    <trip id="347" depart="347.00" from="54236651#1" to="298468993"/>
    <trip id="348" depart="348.00" from="322822557#7" to="9796768"/>
    <trip id="349" depart="349.00" from="24261297#0" to="260901509#0"/>
    <trip id="350" depart="350.00" from="320192376#0" to="835767930#3"/>
    <trip id="351" depart="351.00" from="555576781" to="-252121041#0"/>
    <trip id="352" depart="352.00" from="-466170111" to="22790431#1"/>
    <trip id="353" depart="353.00" from="450667509#0" to="262551662#2"/>
    <trip id="354" depart="354.00" from="16606350#1" to="-324357706"/>
    <trip id="355" depart="355.00" from="346285619" to="35470887#2"/>
    <trip id="356" depart="356.00" from="9797388#0" to="25094695"/>
    <trip id="357" depart="357.00" from="25094695" to="-252121041#3"/>
    <trip id="358" depart="358.00" from="-23226727#2" to="24262858#0"/>
    <trip id="359" depart="359.00" from="22790420#3" to="165691550#1"/>
    <trip id="360" depart="360.00" from="-252121040#2" to="9810678#1"/>
    <trip id="361" depart="361.00" from="555580669#0" to="26468781#0"/>
    <trip id="362" depart="362.00" from="9797564#5" to="997401531"/>
    <trip id="363" depart="363.00" from="32637818#1" to="172779395#4"/>
    <trip id="364" depart="364.00" from="-23226727#2" to="466170112#0"/>
    <trip id="365" depart="365.00" from="24333262#1" to="319373297"/>
    <trip id="366" depart="366.00" from="896198994#0" to="-672774617"/>
    <trip id="367" depart="367.00" from="277829991#1" to="308128942#0"/>
    <trip id="368" depart="368.00" from="25094694" to="-262231167"/>
    <trip id="369" depart="369.00" from="23681399" to="23989430#1"/>
    <trip id="370" depart="370.00" from="325313606#0" to="57716764#2"/>
    <trip id="371" depart="371.00" from="22790430#1" to="346293388"/>
    <trip id="372" depart="372.00" from="16606350#1" to="9797388#4"/>
    <trip id="373" depart="373.00" from="55363139" to="262026866#1"/>
    <trip id="374" depart="374.00" from="24269305#0" to="234715489"/>
    <trip id="375" depart="375.00" from="22790424#0" to="9810860#2"/>
    <trip id="376" depart="376.00" from="24052208#3" to="252121041#2"/>
    <trip id="377" depart="377.00" from="9811244#0" to="320192378#2"/>
    <trip id="378" depart="378.00" from="262026866#1" to="24210220#2"/>
    <trip id="379" depart="379.00" from="-555576753" to="23997236"/>
    <trip id="380" depart="380.00" from="462418493" to="298468993"/>
    <trip id="381" depart="381.00" from="466170112#0" to="127553887#1"/>
    <trip id="382" depart="382.00" from="262231167" to="963339159#2"/>
    <trip id="383" depart="383.00" from="24262718#1" to="353288345"/>
    <trip id="384" depart="384.00" from="-262231176" to="9810860#4"/>
    <trip id="385" depart="385.00" from="295484598" to="148348626#0"/>
    <trip id="386" depart="386.00" from="-374743800#1" to="262026866#1"/>
    <trip id="387" depart="387.00" from="262231171" to="-262231167"/>
    <trip id="388" depart="388.00" from="9811365" to="86822276#1"/>
    <trip id="389" depart="389.00" from="24311617#1" to="-314530071"/>
    <trip id="390" depart="390.00" from="555578557" to="25078634#1"/>
    <trip id="391" depart="391.00" from="374743800#1" to="252121040#2"/>
    <trip id="392" depart="392.00" from="15244017#2" to="555578558"/>
    <trip id="393" depart="393.00" from="9811056#0" to="15244017#1"/>
    <trip id="394" depart="394.00" from="262231171" to="24037548"/>
    <trip id="395" depart="395.00" from="914641146#1" to="252121040#0"/>
    <trip id="396" depart="396.00" from="706503393" to="59718717"/>
    <trip id="397" depart="397.00" from="165633889#0" to="54533182#1"/>
    <trip id="398" depart="398.00" from="24203344#0" to="9796768"/>
    <trip id="399" depart="399.00" from="252121041#2" to="555567156"/>
    <trip id="400" depart="400.00" from="16604632" to="22790420#3"/>
    <trip id="401" depart="401.00" from="280989223" to="9811595"/>
    <trip id="402" depart="402.00" from="25076992#3" to="-402051782"/>
    <trip id="403" depart="403.00" from="260901509#0" to="23989685"/>
    <trip id="404" depart="404.00" from="262231171" to="260713286"/>
    <trip id="405" depart="405.00" from="24269305#0" to="23681390#1"/>
    <trip id="406" depart="406.00" from="-555576753" to="353288344"/>
    <trip id="407" depart="407.00" from="26469304#0" to="129383496#7"/>
    <trip id="408" depart="408.00" from="5133894#0" to="-24037540"/>
    <trip id="409" depart="409.00" from="413354090#5" to="364403765#0"/>
    <trip id="410" depart="410.00" from="553121434#0" to="24037761"/>
    <trip id="411" depart="411.00" from="324357703#1" to="555567156"/>
    <trip id="412" depart="412.00" from="9811056#1" to="25076992#4"/>
    <trip id="413" depart="413.00" from="-23226585#1" to="25094807"/>
    <trip id="414" depart="414.00" from="288194072" to="63792404#1"/>
    <trip id="415" depart="415.00" from="672774617" to="24269094"/>